
     RDKit          3D

 35 37  0  0  0  0  0  0  0  0999 V2000
   22.9512    8.1783   24.3126 H   0  0  0  0  0  0  0  0  0  0  0  0
   23.0402    9.1247   24.6687 N   0  0  0  0  0  0  0  0  0  0  0  0
   22.7964    9.9814   23.7771 C   0  0  0  0  0  0  0  0  0  0  0  0
   22.8001   11.3413   23.8361 N   0  0  0  0  0  0  0  0  0  0  0  0
   23.0240   12.1179   25.0417 C   0  0  0  0  0  0  0  0  0  0  0  0
   22.0668   12.4615   25.4513 H   0  0  0  0  0  0  0  0  0  0  0  0
   23.5314   11.5118   25.8041 H   0  0  0  0  0  0  0  0  0  0  0  0
   23.6544   12.9817   24.8061 H   0  0  0  0  0  0  0  0  0  0  0  0
   22.4981   11.7881   22.5721 C   0  0  0  0  0  0  0  0  0  0  0  0
   22.3934   12.9936   22.3310 O   0  0  0  0  0  0  0  0  0  0  0  0
   22.3254   10.5794   21.5972 C   0  0  0  0  0  0  0  0  0  0  0  0
   20.9206   10.5868   20.9936 C   0  0  0  0  0  0  0  0  0  0  0  0
   20.2788    9.3736   20.7192 C   0  0  0  0  0  0  0  0  0  0  0  0
   20.8029    8.4500   20.9403 H   0  0  0  0  0  0  0  0  0  0  0  0
   18.9735    9.3415   20.2257 C   0  0  0  0  0  0  0  0  0  0  0  0
   18.4903    8.3804   20.0683 H   0  0  0  0  0  0  0  0  0  0  0  0
   18.2862   10.5346   19.9957 C   0  0  0  0  0  0  0  0  0  0  0  0
   17.2558   10.5095   19.6588 H   0  0  0  0  0  0  0  0  0  0  0  0
   18.9180   11.7573   20.2461 C   0  0  0  0  0  0  0  0  0  0  0  0
   18.3713   12.6844   20.1157 H   0  0  0  0  0  0  0  0  0  0  0  0
   20.2342   11.7858   20.7227 C   0  0  0  0  0  0  0  0  0  0  0  0
   20.7065   12.7447   20.9204 H   0  0  0  0  0  0  0  0  0  0  0  0
   23.4311   10.5870   20.5446 C   0  0  0  0  0  0  0  0  0  0  0  0
   23.1288   10.7359   19.1901 C   0  0  0  0  0  0  0  0  0  0  0  0
   22.0876   10.7027   18.8985 H   0  0  0  0  0  0  0  0  0  0  0  0
   24.1200   10.9468   18.2414 C   0  0  0  0  0  0  0  0  0  0  0  0
   23.8724   11.0008   17.1842 H   0  0  0  0  0  0  0  0  0  0  0  0
   25.4397   11.0735   18.6489 C   0  0  0  0  0  0  0  0  0  0  0  0
   26.6991   11.6045   17.3406 Br  0  0  0  0  0  0  0  0  0  0  0  0
   25.7876   10.8608   19.9890 C   0  0  0  0  0  0  0  0  0  0  0  0
   26.8295   10.8683   20.2927 H   0  0  0  0  0  0  0  0  0  0  0  0
   24.7802   10.6246   20.9312 C   0  0  0  0  0  0  0  0  0  0  0  0
   25.0458   10.5020   21.9740 H   0  0  0  0  0  0  0  0  0  0  0  0
   22.4769    9.4767   22.5739 N   0  0  0  0  0  0  0  0  0  0  0  0
   22.6422    8.4912   22.3588 H   0  0  0  0  0  0  0  0  0  0  0  0
  1  2  1  0
  2  3  2  3
  3  4  1  0
  4  5  1  0
  5  6  1  0
  5  7  1  0
  5  8  1  0
  4  9  1  0
  9 10  2  0
  9 11  1  0
 11 12  1  0
 12 13  2  0
 13 14  1  0
 13 15  1  0
 15 16  1  0
 15 17  2  0
 17 18  1  0
 17 19  1  0
 19 20  1  0
 19 21  2  0
 21 22  1  0
 11 23  1  0
 23 24  2  0
 24 25  1  0
 24 26  1  0
 26 27  1  0
 26 28  2  0
 28 29  1  0
 28 30  1  0
 30 31  1  0
 30 32  2  0
 32 33  1  0
 11 34  1  0
 34 35  1  0
 34  3  1  0
 21 12  1  0
 32 23  1  0
M  END
>  <score>  (1) 
5.6859

$$$$

     RDKit          3D

 35 37  0  0  0  0  0  0  0  0999 V2000
   22.9539    8.1877   24.3478 H   0  0  0  0  0  0  0  0  0  0  0  0
   23.0260    9.1436   24.6777 N   0  0  0  0  0  0  0  0  0  0  0  0
   22.8009    9.9811   23.7679 C   0  0  0  0  0  0  0  0  0  0  0  0
   22.7976   11.3338   23.8309 N   0  0  0  0  0  0  0  0  0  0  0  0
   23.0216   12.1144   25.0344 C   0  0  0  0  0  0  0  0  0  0  0  0
   22.0644   12.4620   25.4421 H   0  0  0  0  0  0  0  0  0  0  0  0
   23.5322   11.5120   25.8003 H   0  0  0  0  0  0  0  0  0  0  0  0
   23.6504   12.9773   24.7905 H   0  0  0  0  0  0  0  0  0  0  0  0
   22.5128   11.7828   22.5657 C   0  0  0  0  0  0  0  0  0  0  0  0
   22.3929   12.9869   22.3385 O   0  0  0  0  0  0  0  0  0  0  0  0
   22.3340   10.5894   21.5838 C   0  0  0  0  0  0  0  0  0  0  0  0
   20.9333   10.5956   20.9743 C   0  0  0  0  0  0  0  0  0  0  0  0
   20.2850    9.3808   20.7143 C   0  0  0  0  0  0  0  0  0  0  0  0
   20.8076    8.4556   20.9404 H   0  0  0  0  0  0  0  0  0  0  0  0
   18.9742    9.3429   20.2318 C   0  0  0  0  0  0  0  0  0  0  0  0
   18.4915    8.3824   20.0717 H   0  0  0  0  0  0  0  0  0  0  0  0
   18.2840   10.5364   19.9981 C   0  0  0  0  0  0  0  0  0  0  0  0
   17.2529   10.5088   19.6564 H   0  0  0  0  0  0  0  0  0  0  0  0
   18.9168   11.7607   20.2445 C   0  0  0  0  0  0  0  0  0  0  0  0
   18.3666   12.6848   20.1107 H   0  0  0  0  0  0  0  0  0  0  0  0
   20.2381   11.7956   20.7115 C   0  0  0  0  0  0  0  0  0  0  0  0
   20.7037   12.7578   20.9141 H   0  0  0  0  0  0  0  0  0  0  0  0
   23.4367   10.5968   20.5393 C   0  0  0  0  0  0  0  0  0  0  0  0
   23.1185   10.6761   19.1706 C   0  0  0  0  0  0  0  0  0  0  0  0
   22.0771   10.6711   18.8622 H   0  0  0  0  0  0  0  0  0  0  0  0
   24.1157   10.9080   18.2204 C   0  0  0  0  0  0  0  0  0  0  0  0
   23.8590   10.9946   17.1672 H   0  0  0  0  0  0  0  0  0  0  0  0
   25.3930   11.2276   18.6640 C   0  0  0  0  0  0  0  0  0  0  0  0
   26.4019   12.9314   17.6293 I   0  0  0  0  0  0  0  0  0  0  0  0
   25.7870   10.9113   19.9664 C   0  0  0  0  0  0  0  0  0  0  0  0
   26.8354   10.9983   20.2379 H   0  0  0  0  0  0  0  0  0  0  0  0
   24.7966   10.6306   20.9222 C   0  0  0  0  0  0  0  0  0  0  0  0
   25.0988   10.5000   21.9627 H   0  0  0  0  0  0  0  0  0  0  0  0
   22.5187    9.4856   22.5465 N   0  0  0  0  0  0  0  0  0  0  0  0
   22.6465    8.4995   22.3311 H   0  0  0  0  0  0  0  0  0  0  0  0
  1  2  1  0
  2  3  2  3
  3  4  1  0
  4  5  1  0
  5  6  1  0
  5  7  1  0
  5  8  1  0
  4  9  1  0
  9 10  2  0
  9 11  1  0
 11 12  1  0
 12 13  2  0
 13 14  1  0
 13 15  1  0
 15 16  1  0
 15 17  2  0
 17 18  1  0
 17 19  1  0
 19 20  1  0
 19 21  2  0
 21 22  1  0
 11 23  1  0
 23 24  2  0
 24 25  1  0
 24 26  1  0
 26 27  1  0
 26 28  2  0
 28 29  1  0
 28 30  1  0
 30 31  1  0
 30 32  2  0
 32 33  1  0
 11 34  1  0
 34 35  1  0
 34  3  1  0
 21 12  1  0
 32 23  1  0
M  END
>  <score>  (2) 
5.90305

$$$$
4djw
     RDKit          3D

 36 38  0  0  0  0  0  0  0  0999 V2000
   22.4950   11.8750   22.5810 C   0  0  0  0  0  0  0  0  0  0  0  0
   22.5380    9.4930   22.4640 N   0  0  0  0  0  0  0  0  0  0  0  0
   22.3600   13.0630   22.3480 O   0  0  0  0  0  0  0  0  0  0  0  0
   22.3390   10.6680   21.5610 C   0  0  0  0  0  0  0  0  0  0  0  0
   22.7860   11.3350   23.8120 N   0  0  0  0  0  0  0  0  0  0  0  0
   22.7800    9.9140   23.7010 C   0  0  0  0  0  0  0  0  0  0  0  0
   22.9970    9.1110   24.7490 N   0  0  0  0  0  0  0  0  0  0  0  0
   23.0220   12.1410   25.0180 C   0  0  0  0  0  0  0  0  0  0  0  0
   20.9020   10.6270   21.0050 C   0  0  0  0  0  0  0  0  0  0  0  0
   20.2720    9.4140   20.7470 C   0  0  0  0  0  0  0  0  0  0  0  0
   18.9690    9.3760   20.2600 C   0  0  0  0  0  0  0  0  0  0  0  0
   18.2800   10.5440   20.0210 C   0  0  0  0  0  0  0  0  0  0  0  0
   18.8920   11.7530   20.2590 C   0  0  0  0  0  0  0  0  0  0  0  0
   20.1950   11.7970   20.7440 C   0  0  0  0  0  0  0  0  0  0  0  0
   23.4880   10.6920   20.5300 C   0  0  0  0  0  0  0  0  0  0  0  0
   23.2110   10.7890   19.1730 C   0  0  0  0  0  0  0  0  0  0  0  0
   24.2350   10.8650   18.2430 C   0  0  0  0  0  0  0  0  0  0  0  0
   25.5500   10.8410   18.6560 C   0  0  0  0  0  0  0  0  0  0  0  0
   25.8710   10.7460   20.0070 C   0  0  0  0  0  0  0  0  0  0  0  0
   24.8260   10.6610   20.9430 C   0  0  0  0  0  0  0  0  0  0  0  0
    0.0000    0.0000    0.0000 H   0  0  0  0  0  0  0  0  0  0  0  0
    0.0000    0.0000    0.0000 H   0  0  0  0  0  0  0  0  0  0  0  0
    0.0000    0.0000    0.0000 H   0  0  0  0  0  0  0  0  0  0  0  0
    0.0000    0.0000    0.0000 H   0  0  0  0  0  0  0  0  0  0  0  0
    0.0000    0.0000    0.0000 H   0  0  0  0  0  0  0  0  0  0  0  0
    0.0000    0.0000    0.0000 H   0  0  0  0  0  0  0  0  0  0  0  0
    0.0000    0.0000    0.0000 H   0  0  0  0  0  0  0  0  0  0  0  0
    0.0000    0.0000    0.0000 H   0  0  0  0  0  0  0  0  0  0  0  0
    0.0000    0.0000    0.0000 H   0  0  0  0  0  0  0  0  0  0  0  0
    0.0000    0.0000    0.0000 H   0  0  0  0  0  0  0  0  0  0  0  0
    0.0000    0.0000    0.0000 H   0  0  0  0  0  0  0  0  0  0  0  0
    0.0000    0.0000    0.0000 H   0  0  0  0  0  0  0  0  0  0  0  0
    0.0000    0.0000    0.0000 H   0  0  0  0  0  0  0  0  0  0  0  0
    0.0000    0.0000    0.0000 H   0  0  0  0  0  0  0  0  0  0  0  0
   12.4381    5.2775    9.0820 O   0  0  0  0  0  0  0  0  0  0  0  0
   11.7199    5.9140    9.2860 H   0  0  0  0  0  0  0  0  0  0  0  0
  1  3  2  0
  1  4  1  0
  1  5  1  0
  2  4  1  0
  2  6  1  0
  4  9  1  0
  4 15  1  0
  5  6  1  0
  5  8  1  0
  6  7  2  3
  9 10  2  0
  9 14  1  0
 10 11  1  0
 11 12  2  0
 12 13  1  0
 13 14  2  0
 15 16  2  0
 15 20  1  0
 16 17  1  0
 17 18  2  0
 18 19  1  0
 19 20  2  0
  2 21  1  0
  7 22  1  0
  8 23  1  0
  8 24  1  0
  8 25  1  0
 10 26  1  0
 11 27  1  0
 12 28  1  0
 13 29  1  0
 14 30  1  0
 16 31  1  0
 17 32  1  0
 19 33  1  0
 20 34  1  0
 35 36  1  0
 18 35  1  0
M  END
>  <attachment_point>  (3) 
32

>  <score>  (3) 
<NA>

$$$$
4djw
     RDKit          3D

 39 41  0  0  0  0  0  0  0  0999 V2000
   22.4950   11.8750   22.5810 C   0  0  0  0  0  0  0  0  0  0  0  0
   22.5380    9.4930   22.4640 N   0  0  0  0  0  0  0  0  0  0  0  0
   22.3600   13.0630   22.3480 O   0  0  0  0  0  0  0  0  0  0  0  0
   22.3390   10.6680   21.5610 C   0  0  0  0  0  0  0  0  0  0  0  0
   22.7860   11.3350   23.8120 N   0  0  0  0  0  0  0  0  0  0  0  0
   22.7800    9.9140   23.7010 C   0  0  0  0  0  0  0  0  0  0  0  0
   22.9970    9.1110   24.7490 N   0  0  0  0  0  0  0  0  0  0  0  0
   23.0220   12.1410   25.0180 C   0  0  0  0  0  0  0  0  0  0  0  0
   20.9020   10.6270   21.0050 C   0  0  0  0  0  0  0  0  0  0  0  0
   20.2720    9.4140   20.7470 C   0  0  0  0  0  0  0  0  0  0  0  0
   18.9690    9.3760   20.2600 C   0  0  0  0  0  0  0  0  0  0  0  0
   18.2800   10.5440   20.0210 C   0  0  0  0  0  0  0  0  0  0  0  0
   18.8920   11.7530   20.2590 C   0  0  0  0  0  0  0  0  0  0  0  0
   20.1950   11.7970   20.7440 C   0  0  0  0  0  0  0  0  0  0  0  0
   23.4880   10.6920   20.5300 C   0  0  0  0  0  0  0  0  0  0  0  0
   23.2110   10.7890   19.1730 C   0  0  0  0  0  0  0  0  0  0  0  0
   24.2350   10.8650   18.2430 C   0  0  0  0  0  0  0  0  0  0  0  0
   25.5500   10.8410   18.6560 C   0  0  0  0  0  0  0  0  0  0  0  0
   25.8710   10.7460   20.0070 C   0  0  0  0  0  0  0  0  0  0  0  0
   24.8260   10.6610   20.9430 C   0  0  0  0  0  0  0  0  0  0  0  0
    0.0000    0.0000    0.0000 H   0  0  0  0  0  0  0  0  0  0  0  0
    0.0000    0.0000    0.0000 H   0  0  0  0  0  0  0  0  0  0  0  0
    0.0000    0.0000    0.0000 H   0  0  0  0  0  0  0  0  0  0  0  0
    0.0000    0.0000    0.0000 H   0  0  0  0  0  0  0  0  0  0  0  0
    0.0000    0.0000    0.0000 H   0  0  0  0  0  0  0  0  0  0  0  0
    0.0000    0.0000    0.0000 H   0  0  0  0  0  0  0  0  0  0  0  0
    0.0000    0.0000    0.0000 H   0  0  0  0  0  0  0  0  0  0  0  0
    0.0000    0.0000    0.0000 H   0  0  0  0  0  0  0  0  0  0  0  0
    0.0000    0.0000    0.0000 H   0  0  0  0  0  0  0  0  0  0  0  0
    0.0000    0.0000    0.0000 H   0  0  0  0  0  0  0  0  0  0  0  0
    0.0000    0.0000    0.0000 H   0  0  0  0  0  0  0  0  0  0  0  0
    0.0000    0.0000    0.0000 H   0  0  0  0  0  0  0  0  0  0  0  0
    0.0000    0.0000    0.0000 H   0  0  0  0  0  0  0  0  0  0  0  0
    0.0000    0.0000    0.0000 H   0  0  0  0  0  0  0  0  0  0  0  0
   12.6188    5.3542    9.2139 O   0  0  0  0  0  0  0  0  0  0  0  0
   11.9101    4.7126    8.1831 C   0  0  0  0  0  0  0  0  0  0  0  0
   11.7620    3.6731    8.5314 H   0  0  0  0  0  0  0  0  0  0  0  0
   12.4995    4.7241    7.2503 H   0  0  0  0  0  0  0  0  0  0  0  0
   10.9619    5.2502    8.0377 H   0  0  0  0  0  0  0  0  0  0  0  0
  1  3  2  0
  1  4  1  0
  1  5  1  0
  2  4  1  0
  2  6  1  0
  4  9  1  0
  4 15  1  0
  5  6  1  0
  5  8  1  0
  6  7  2  3
  9 10  2  0
  9 14  1  0
 10 11  1  0
 11 12  2  0
 12 13  1  0
 13 14  2  0
 15 16  2  0
 15 20  1  0
 16 17  1  0
 17 18  2  0
 18 19  1  0
 19 20  2  0
  2 21  1  0
  7 22  1  0
  8 23  1  0
  8 24  1  0
  8 25  1  0
 10 26  1  0
 11 27  1  0
 12 28  1  0
 13 29  1  0
 14 30  1  0
 16 31  1  0
 17 32  1  0
 19 33  1  0
 20 34  1  0
 35 36  1  0
 36 37  1  0
 36 38  1  0
 36 39  1  0
 18 35  1  0
M  END
>  <attachment_point>  (4) 
32

>  <score>  (4) 
<NA>

$$$$
4djw
     RDKit          3D

 37 39  0  0  0  0  0  0  0  0999 V2000
   22.4950   11.8750   22.5810 C   0  0  0  0  0  0  0  0  0  0  0  0
   22.5380    9.4930   22.4640 N   0  0  0  0  0  0  0  0  0  0  0  0
   22.3600   13.0630   22.3480 O   0  0  0  0  0  0  0  0  0  0  0  0
   22.3390   10.6680   21.5610 C   0  0  0  0  0  0  0  0  0  0  0  0
   22.7860   11.3350   23.8120 N   0  0  0  0  0  0  0  0  0  0  0  0
   22.7800    9.9140   23.7010 C   0  0  0  0  0  0  0  0  0  0  0  0
   22.9970    9.1110   24.7490 N   0  0  0  0  0  0  0  0  0  0  0  0
   23.0220   12.1410   25.0180 C   0  0  0  0  0  0  0  0  0  0  0  0
   20.9020   10.6270   21.0050 C   0  0  0  0  0  0  0  0  0  0  0  0
   20.2720    9.4140   20.7470 C   0  0  0  0  0  0  0  0  0  0  0  0
   18.9690    9.3760   20.2600 C   0  0  0  0  0  0  0  0  0  0  0  0
   18.2800   10.5440   20.0210 C   0  0  0  0  0  0  0  0  0  0  0  0
   18.8920   11.7530   20.2590 C   0  0  0  0  0  0  0  0  0  0  0  0
   20.1950   11.7970   20.7440 C   0  0  0  0  0  0  0  0  0  0  0  0
   23.4880   10.6920   20.5300 C   0  0  0  0  0  0  0  0  0  0  0  0
   23.2110   10.7890   19.1730 C   0  0  0  0  0  0  0  0  0  0  0  0
   24.2350   10.8650   18.2430 C   0  0  0  0  0  0  0  0  0  0  0  0
   25.5500   10.8410   18.6560 C   0  0  0  0  0  0  0  0  0  0  0  0
   25.8710   10.7460   20.0070 C   0  0  0  0  0  0  0  0  0  0  0  0
   24.8260   10.6610   20.9430 C   0  0  0  0  0  0  0  0  0  0  0  0
    0.0000    0.0000    0.0000 H   0  0  0  0  0  0  0  0  0  0  0  0
    0.0000    0.0000    0.0000 H   0  0  0  0  0  0  0  0  0  0  0  0
    0.0000    0.0000    0.0000 H   0  0  0  0  0  0  0  0  0  0  0  0
    0.0000    0.0000    0.0000 H   0  0  0  0  0  0  0  0  0  0  0  0
    0.0000    0.0000    0.0000 H   0  0  0  0  0  0  0  0  0  0  0  0
    0.0000    0.0000    0.0000 H   0  0  0  0  0  0  0  0  0  0  0  0
    0.0000    0.0000    0.0000 H   0  0  0  0  0  0  0  0  0  0  0  0
    0.0000    0.0000    0.0000 H   0  0  0  0  0  0  0  0  0  0  0  0
    0.0000    0.0000    0.0000 H   0  0  0  0  0  0  0  0  0  0  0  0
    0.0000    0.0000    0.0000 H   0  0  0  0  0  0  0  0  0  0  0  0
    0.0000    0.0000    0.0000 H   0  0  0  0  0  0  0  0  0  0  0  0
    0.0000    0.0000    0.0000 H   0  0  0  0  0  0  0  0  0  0  0  0
    0.0000    0.0000    0.0000 H   0  0  0  0  0  0  0  0  0  0  0  0
    0.0000    0.0000    0.0000 H   0  0  0  0  0  0  0  0  0  0  0  0
   12.3570    5.2432    9.0228 N   0  0  0  0  0  0  0  0  0  0  0  0
   11.7014    5.5059    9.8042 H   0  0  0  0  0  0  0  0  0  0  0  0
   12.6981    4.2789    9.1922 H   0  0  0  0  0  0  0  0  0  0  0  0
  1  3  2  0
  1  4  1  0
  1  5  1  0
  2  4  1  0
  2  6  1  0
  4  9  1  0
  4 15  1  0
  5  6  1  0
  5  8  1  0
  6  7  2  3
  9 10  2  0
  9 14  1  0
 10 11  1  0
 11 12  2  0
 12 13  1  0
 13 14  2  0
 15 16  2  0
 15 20  1  0
 16 17  1  0
 17 18  2  0
 18 19  1  0
 19 20  2  0
  2 21  1  0
  7 22  1  0
  8 23  1  0
  8 24  1  0
  8 25  1  0
 10 26  1  0
 11 27  1  0
 12 28  1  0
 13 29  1  0
 14 30  1  0
 16 31  1  0
 17 32  1  0
 19 33  1  0
 20 34  1  0
 35 36  1  0
 35 37  1  0
 18 35  1  0
M  END
>  <attachment_point>  (5) 
32

>  <score>  (5) 
<NA>

$$$$
4djw
     RDKit          3D

 35 37  0  0  0  0  0  0  0  0999 V2000
   22.4950   11.8750   22.5810 C   0  0  0  0  0  0  0  0  0  0  0  0
   22.5380    9.4930   22.4640 N   0  0  0  0  0  0  0  0  0  0  0  0
   22.3600   13.0630   22.3480 O   0  0  0  0  0  0  0  0  0  0  0  0
   22.3390   10.6680   21.5610 C   0  0  0  0  0  0  0  0  0  0  0  0
   22.7860   11.3350   23.8120 N   0  0  0  0  0  0  0  0  0  0  0  0
   22.7800    9.9140   23.7010 C   0  0  0  0  0  0  0  0  0  0  0  0
   22.9970    9.1110   24.7490 N   0  0  0  0  0  0  0  0  0  0  0  0
   23.0220   12.1410   25.0180 C   0  0  0  0  0  0  0  0  0  0  0  0
   20.9020   10.6270   21.0050 C   0  0  0  0  0  0  0  0  0  0  0  0
   20.2720    9.4140   20.7470 C   0  0  0  0  0  0  0  0  0  0  0  0
   18.9690    9.3760   20.2600 C   0  0  0  0  0  0  0  0  0  0  0  0
   18.2800   10.5440   20.0210 C   0  0  0  0  0  0  0  0  0  0  0  0
   18.8920   11.7530   20.2590 C   0  0  0  0  0  0  0  0  0  0  0  0
   20.1950   11.7970   20.7440 C   0  0  0  0  0  0  0  0  0  0  0  0
   23.4880   10.6920   20.5300 C   0  0  0  0  0  0  0  0  0  0  0  0
   23.2110   10.7890   19.1730 C   0  0  0  0  0  0  0  0  0  0  0  0
   24.2350   10.8650   18.2430 C   0  0  0  0  0  0  0  0  0  0  0  0
   25.5500   10.8410   18.6560 C   0  0  0  0  0  0  0  0  0  0  0  0
   25.8710   10.7460   20.0070 C   0  0  0  0  0  0  0  0  0  0  0  0
   24.8260   10.6610   20.9430 C   0  0  0  0  0  0  0  0  0  0  0  0
    0.0000    0.0000    0.0000 H   0  0  0  0  0  0  0  0  0  0  0  0
    0.0000    0.0000    0.0000 H   0  0  0  0  0  0  0  0  0  0  0  0
    0.0000    0.0000    0.0000 H   0  0  0  0  0  0  0  0  0  0  0  0
    0.0000    0.0000    0.0000 H   0  0  0  0  0  0  0  0  0  0  0  0
    0.0000    0.0000    0.0000 H   0  0  0  0  0  0  0  0  0  0  0  0
    0.0000    0.0000    0.0000 H   0  0  0  0  0  0  0  0  0  0  0  0
    0.0000    0.0000    0.0000 H   0  0  0  0  0  0  0  0  0  0  0  0
    0.0000    0.0000    0.0000 H   0  0  0  0  0  0  0  0  0  0  0  0
    0.0000    0.0000    0.0000 H   0  0  0  0  0  0  0  0  0  0  0  0
    0.0000    0.0000    0.0000 H   0  0  0  0  0  0  0  0  0  0  0  0
    0.0000    0.0000    0.0000 H   0  0  0  0  0  0  0  0  0  0  0  0
    0.0000    0.0000    0.0000 H   0  0  0  0  0  0  0  0  0  0  0  0
    0.0000    0.0000    0.0000 H   0  0  0  0  0  0  0  0  0  0  0  0
    0.0000    0.0000    0.0000 H   0  0  0  0  0  0  0  0  0  0  0  0
   12.4923    5.3006    9.1216 Cl  0  0  0  0  0  0  0  0  0  0  0  0
  1  3  2  0
  1  4  1  0
  1  5  1  0
  2  4  1  0
  2  6  1  0
  4  9  1  0
  4 15  1  0
  5  6  1  0
  5  8  1  0
  6  7  2  3
  9 10  2  0
  9 14  1  0
 10 11  1  0
 11 12  2  0
 12 13  1  0
 13 14  2  0
 15 16  2  0
 15 20  1  0
 16 17  1  0
 17 18  2  0
 18 19  1  0
 19 20  2  0
  2 21  1  0
  7 22  1  0
  8 23  1  0
  8 24  1  0
  8 25  1  0
 10 26  1  0
 11 27  1  0
 12 28  1  0
 13 29  1  0
 14 30  1  0
 16 31  1  0
 17 32  1  0
 19 33  1  0
 20 34  1  0
 18 35  1  0
M  END
>  <attachment_point>  (6) 
32

>  <score>  (6) 
<NA>

$$$$
4djw
     RDKit          3D

 35 37  0  0  0  0  0  0  0  0999 V2000
   22.4950   11.8750   22.5810 C   0  0  0  0  0  0  0  0  0  0  0  0
   22.5380    9.4930   22.4640 N   0  0  0  0  0  0  0  0  0  0  0  0
   22.3600   13.0630   22.3480 O   0  0  0  0  0  0  0  0  0  0  0  0
   22.3390   10.6680   21.5610 C   0  0  0  0  0  0  0  0  0  0  0  0
   22.7860   11.3350   23.8120 N   0  0  0  0  0  0  0  0  0  0  0  0
   22.7800    9.9140   23.7010 C   0  0  0  0  0  0  0  0  0  0  0  0
   22.9970    9.1110   24.7490 N   0  0  0  0  0  0  0  0  0  0  0  0
   23.0220   12.1410   25.0180 C   0  0  0  0  0  0  0  0  0  0  0  0
   20.9020   10.6270   21.0050 C   0  0  0  0  0  0  0  0  0  0  0  0
   20.2720    9.4140   20.7470 C   0  0  0  0  0  0  0  0  0  0  0  0
   18.9690    9.3760   20.2600 C   0  0  0  0  0  0  0  0  0  0  0  0
   18.2800   10.5440   20.0210 C   0  0  0  0  0  0  0  0  0  0  0  0
   18.8920   11.7530   20.2590 C   0  0  0  0  0  0  0  0  0  0  0  0
   20.1950   11.7970   20.7440 C   0  0  0  0  0  0  0  0  0  0  0  0
   23.4880   10.6920   20.5300 C   0  0  0  0  0  0  0  0  0  0  0  0
   23.2110   10.7890   19.1730 C   0  0  0  0  0  0  0  0  0  0  0  0
   24.2350   10.8650   18.2430 C   0  0  0  0  0  0  0  0  0  0  0  0
   25.5500   10.8410   18.6560 C   0  0  0  0  0  0  0  0  0  0  0  0
   25.8710   10.7460   20.0070 C   0  0  0  0  0  0  0  0  0  0  0  0
   24.8260   10.6610   20.9430 C   0  0  0  0  0  0  0  0  0  0  0  0
    0.0000    0.0000    0.0000 H   0  0  0  0  0  0  0  0  0  0  0  0
    0.0000    0.0000    0.0000 H   0  0  0  0  0  0  0  0  0  0  0  0
    0.0000    0.0000    0.0000 H   0  0  0  0  0  0  0  0  0  0  0  0
    0.0000    0.0000    0.0000 H   0  0  0  0  0  0  0  0  0  0  0  0
    0.0000    0.0000    0.0000 H   0  0  0  0  0  0  0  0  0  0  0  0
    0.0000    0.0000    0.0000 H   0  0  0  0  0  0  0  0  0  0  0  0
    0.0000    0.0000    0.0000 H   0  0  0  0  0  0  0  0  0  0  0  0
    0.0000    0.0000    0.0000 H   0  0  0  0  0  0  0  0  0  0  0  0
    0.0000    0.0000    0.0000 H   0  0  0  0  0  0  0  0  0  0  0  0
    0.0000    0.0000    0.0000 H   0  0  0  0  0  0  0  0  0  0  0  0
    0.0000    0.0000    0.0000 H   0  0  0  0  0  0  0  0  0  0  0  0
    0.0000    0.0000    0.0000 H   0  0  0  0  0  0  0  0  0  0  0  0
    0.0000    0.0000    0.0000 H   0  0  0  0  0  0  0  0  0  0  0  0
    0.0000    0.0000    0.0000 H   0  0  0  0  0  0  0  0  0  0  0  0
   12.5128    5.3092    9.1365 F   0  0  0  0  0  0  0  0  0  0  0  0
  1  3  2  0
  1  4  1  0
  1  5  1  0
  2  4  1  0
  2  6  1  0
  4  9  1  0
  4 15  1  0
  5  6  1  0
  5  8  1  0
  6  7  2  3
  9 10  2  0
  9 14  1  0
 10 11  1  0
 11 12  2  0
 12 13  1  0
 13 14  2  0
 15 16  2  0
 15 20  1  0
 16 17  1  0
 17 18  2  0
 18 19  1  0
 19 20  2  0
  2 21  1  0
  7 22  1  0
  8 23  1  0
  8 24  1  0
  8 25  1  0
 10 26  1  0
 11 27  1  0
 12 28  1  0
 13 29  1  0
 14 30  1  0
 16 31  1  0
 17 32  1  0
 19 33  1  0
 20 34  1  0
 18 35  1  0
M  END
>  <attachment_point>  (7) 
32

>  <score>  (7) 
<NA>

$$$$
4djw
     RDKit          3D

 41 43  0  0  0  0  0  0  0  0999 V2000
   22.4950   11.8750   22.5810 C   0  0  0  0  0  0  0  0  0  0  0  0
   22.5380    9.4930   22.4640 N   0  0  0  0  0  0  0  0  0  0  0  0
   22.3600   13.0630   22.3480 O   0  0  0  0  0  0  0  0  0  0  0  0
   22.3390   10.6680   21.5610 C   0  0  0  0  0  0  0  0  0  0  0  0
   22.7860   11.3350   23.8120 N   0  0  0  0  0  0  0  0  0  0  0  0
   22.7800    9.9140   23.7010 C   0  0  0  0  0  0  0  0  0  0  0  0
   22.9970    9.1110   24.7490 N   0  0  0  0  0  0  0  0  0  0  0  0
   23.0220   12.1410   25.0180 C   0  0  0  0  0  0  0  0  0  0  0  0
   20.9020   10.6270   21.0050 C   0  0  0  0  0  0  0  0  0  0  0  0
   20.2720    9.4140   20.7470 C   0  0  0  0  0  0  0  0  0  0  0  0
   18.9690    9.3760   20.2600 C   0  0  0  0  0  0  0  0  0  0  0  0
   18.2800   10.5440   20.0210 C   0  0  0  0  0  0  0  0  0  0  0  0
   18.8920   11.7530   20.2590 C   0  0  0  0  0  0  0  0  0  0  0  0
   20.1950   11.7970   20.7440 C   0  0  0  0  0  0  0  0  0  0  0  0
   23.4880   10.6920   20.5300 C   0  0  0  0  0  0  0  0  0  0  0  0
   23.2110   10.7890   19.1730 C   0  0  0  0  0  0  0  0  0  0  0  0
   24.2350   10.8650   18.2430 C   0  0  0  0  0  0  0  0  0  0  0  0
   25.5500   10.8410   18.6560 C   0  0  0  0  0  0  0  0  0  0  0  0
   25.8710   10.7460   20.0070 C   0  0  0  0  0  0  0  0  0  0  0  0
   24.8260   10.6610   20.9430 C   0  0  0  0  0  0  0  0  0  0  0  0
    0.0000    0.0000    0.0000 H   0  0  0  0  0  0  0  0  0  0  0  0
    0.0000    0.0000    0.0000 H   0  0  0  0  0  0  0  0  0  0  0  0
    0.0000    0.0000    0.0000 H   0  0  0  0  0  0  0  0  0  0  0  0
    0.0000    0.0000    0.0000 H   0  0  0  0  0  0  0  0  0  0  0  0
    0.0000    0.0000    0.0000 H   0  0  0  0  0  0  0  0  0  0  0  0
    0.0000    0.0000    0.0000 H   0  0  0  0  0  0  0  0  0  0  0  0
    0.0000    0.0000    0.0000 H   0  0  0  0  0  0  0  0  0  0  0  0
    0.0000    0.0000    0.0000 H   0  0  0  0  0  0  0  0  0  0  0  0
    0.0000    0.0000    0.0000 H   0  0  0  0  0  0  0  0  0  0  0  0
    0.0000    0.0000    0.0000 H   0  0  0  0  0  0  0  0  0  0  0  0
    0.0000    0.0000    0.0000 H   0  0  0  0  0  0  0  0  0  0  0  0
    0.0000    0.0000    0.0000 H   0  0  0  0  0  0  0  0  0  0  0  0
    0.0000    0.0000    0.0000 H   0  0  0  0  0  0  0  0  0  0  0  0
    0.0000    0.0000    0.0000 H   0  0  0  0  0  0  0  0  0  0  0  0
   12.4220    5.2707    9.0703 C   0  0  0  0  0  0  0  0  0  0  0  0
   13.0872    4.2790    8.1550 C   0  0  0  0  0  0  0  0  0  0  0  0
   11.9823    6.1313    8.5666 H   0  0  0  0  0  0  0  0  0  0  0  0
   11.7255    4.7538    9.7496 H   0  0  0  0  0  0  0  0  0  0  0  0
   13.1628    3.3152    8.7358 H   0  0  0  0  0  0  0  0  0  0  0  0
   14.1440    4.5489    7.9156 H   0  0  0  0  0  0  0  0  0  0  0  0
   12.5344    4.0730    7.2401 H   0  0  0  0  0  0  0  0  0  0  0  0
  1  3  2  0
  1  4  1  0
  1  5  1  0
  2  4  1  0
  2  6  1  0
  4  9  1  0
  4 15  1  0
  5  6  1  0
  5  8  1  0
  6  7  2  3
  9 10  2  0
  9 14  1  0
 10 11  1  0
 11 12  2  0
 12 13  1  0
 13 14  2  0
 15 16  2  0
 15 20  1  0
 16 17  1  0
 17 18  2  0
 18 19  1  0
 19 20  2  0
  2 21  1  0
  7 22  1  0
  8 23  1  0
  8 24  1  0
  8 25  1  0
 10 26  1  0
 11 27  1  0
 12 28  1  0
 13 29  1  0
 14 30  1  0
 16 31  1  0
 17 32  1  0
 19 33  1  0
 20 34  1  0
 35 36  1  0
 35 37  1  0
 35 38  1  0
 36 39  1  0
 36 40  1  0
 36 41  1  0
 18 35  1  0
M  END
>  <attachment_point>  (8) 
32

>  <score>  (8) 
<NA>

$$$$
4djw
     RDKit          3D

 36 38  0  0  0  0  0  0  0  0999 V2000
   22.4950   11.8750   22.5810 C   0  0  0  0  0  0  0  0  0  0  0  0
   22.5380    9.4930   22.4640 N   0  0  0  0  0  0  0  0  0  0  0  0
   22.3600   13.0630   22.3480 O   0  0  0  0  0  0  0  0  0  0  0  0
   22.3390   10.6680   21.5610 C   0  0  0  0  0  0  0  0  0  0  0  0
   22.7860   11.3350   23.8120 N   0  0  0  0  0  0  0  0  0  0  0  0
   22.7800    9.9140   23.7010 C   0  0  0  0  0  0  0  0  0  0  0  0
   22.9970    9.1110   24.7490 N   0  0  0  0  0  0  0  0  0  0  0  0
   23.0220   12.1410   25.0180 C   0  0  0  0  0  0  0  0  0  0  0  0
   20.9020   10.6270   21.0050 C   0  0  0  0  0  0  0  0  0  0  0  0
   20.2720    9.4140   20.7470 C   0  0  0  0  0  0  0  0  0  0  0  0
   18.9690    9.3760   20.2600 C   0  0  0  0  0  0  0  0  0  0  0  0
   18.2800   10.5440   20.0210 C   0  0  0  0  0  0  0  0  0  0  0  0
   18.8920   11.7530   20.2590 C   0  0  0  0  0  0  0  0  0  0  0  0
   20.1950   11.7970   20.7440 C   0  0  0  0  0  0  0  0  0  0  0  0
   23.4880   10.6920   20.5300 C   0  0  0  0  0  0  0  0  0  0  0  0
   23.2110   10.7890   19.1730 C   0  0  0  0  0  0  0  0  0  0  0  0
   24.2350   10.8650   18.2430 C   0  0  0  0  0  0  0  0  0  0  0  0
   25.5500   10.8410   18.6560 C   0  0  0  0  0  0  0  0  0  0  0  0
   25.8710   10.7460   20.0070 C   0  0  0  0  0  0  0  0  0  0  0  0
   24.8260   10.6610   20.9430 C   0  0  0  0  0  0  0  0  0  0  0  0
    0.0000    0.0000    0.0000 H   0  0  0  0  0  0  0  0  0  0  0  0
    0.0000    0.0000    0.0000 H   0  0  0  0  0  0  0  0  0  0  0  0
    0.0000    0.0000    0.0000 H   0  0  0  0  0  0  0  0  0  0  0  0
    0.0000    0.0000    0.0000 H   0  0  0  0  0  0  0  0  0  0  0  0
    0.0000    0.0000    0.0000 H   0  0  0  0  0  0  0  0  0  0  0  0
    0.0000    0.0000    0.0000 H   0  0  0  0  0  0  0  0  0  0  0  0
    0.0000    0.0000    0.0000 H   0  0  0  0  0  0  0  0  0  0  0  0
    0.0000    0.0000    0.0000 H   0  0  0  0  0  0  0  0  0  0  0  0
    0.0000    0.0000    0.0000 H   0  0  0  0  0  0  0  0  0  0  0  0
    0.0000    0.0000    0.0000 H   0  0  0  0  0  0  0  0  0  0  0  0
    0.0000    0.0000    0.0000 H   0  0  0  0  0  0  0  0  0  0  0  0
    0.0000    0.0000    0.0000 H   0  0  0  0  0  0  0  0  0  0  0  0
    0.0000    0.0000    0.0000 H   0  0  0  0  0  0  0  0  0  0  0  0
    0.0000    0.0000    0.0000 H   0  0  0  0  0  0  0  0  0  0  0  0
   12.4303    5.2743    9.0763 C   0  0  0  0  0  0  0  0  0  0  0  0
   11.5562    4.9012    8.4384 N   0  0  0  0  0  0  0  0  0  0  0  0
  1  3  2  0
  1  4  1  0
  1  5  1  0
  2  4  1  0
  2  6  1  0
  4  9  1  0
  4 15  1  0
  5  6  1  0
  5  8  1  0
  6  7  2  3
  9 10  2  0
  9 14  1  0
 10 11  1  0
 11 12  2  0
 12 13  1  0
 13 14  2  0
 15 16  2  0
 15 20  1  0
 16 17  1  0
 17 18  2  0
 18 19  1  0
 19 20  2  0
  2 21  1  0
  7 22  1  0
  8 23  1  0
  8 24  1  0
  8 25  1  0
 10 26  1  0
 11 27  1  0
 12 28  1  0
 13 29  1  0
 14 30  1  0
 16 31  1  0
 17 32  1  0
 19 33  1  0
 20 34  1  0
 35 36  3  0
 18 35  1  0
M  END
>  <attachment_point>  (9) 
32

>  <score>  (9) 
<NA>

$$$$
4djw
     RDKit          3D

 38 40  0  0  0  0  0  0  0  0999 V2000
   22.4950   11.8750   22.5810 C   0  0  0  0  0  0  0  0  0  0  0  0
   22.5380    9.4930   22.4640 N   0  0  0  0  0  0  0  0  0  0  0  0
   22.3600   13.0630   22.3480 O   0  0  0  0  0  0  0  0  0  0  0  0
   22.3390   10.6680   21.5610 C   0  0  0  0  0  0  0  0  0  0  0  0
   22.7860   11.3350   23.8120 N   0  0  0  0  0  0  0  0  0  0  0  0
   22.7800    9.9140   23.7010 C   0  0  0  0  0  0  0  0  0  0  0  0
   22.9970    9.1110   24.7490 N   0  0  0  0  0  0  0  0  0  0  0  0
   23.0220   12.1410   25.0180 C   0  0  0  0  0  0  0  0  0  0  0  0
   20.9020   10.6270   21.0050 C   0  0  0  0  0  0  0  0  0  0  0  0
   20.2720    9.4140   20.7470 C   0  0  0  0  0  0  0  0  0  0  0  0
   18.9690    9.3760   20.2600 C   0  0  0  0  0  0  0  0  0  0  0  0
   18.2800   10.5440   20.0210 C   0  0  0  0  0  0  0  0  0  0  0  0
   18.8920   11.7530   20.2590 C   0  0  0  0  0  0  0  0  0  0  0  0
   20.1950   11.7970   20.7440 C   0  0  0  0  0  0  0  0  0  0  0  0
   23.4880   10.6920   20.5300 C   0  0  0  0  0  0  0  0  0  0  0  0
   23.2110   10.7890   19.1730 C   0  0  0  0  0  0  0  0  0  0  0  0
   24.2350   10.8650   18.2430 C   0  0  0  0  0  0  0  0  0  0  0  0
   25.5500   10.8410   18.6560 C   0  0  0  0  0  0  0  0  0  0  0  0
   25.8710   10.7460   20.0070 C   0  0  0  0  0  0  0  0  0  0  0  0
   24.8260   10.6610   20.9430 C   0  0  0  0  0  0  0  0  0  0  0  0
    0.0000    0.0000    0.0000 H   0  0  0  0  0  0  0  0  0  0  0  0
    0.0000    0.0000    0.0000 H   0  0  0  0  0  0  0  0  0  0  0  0
    0.0000    0.0000    0.0000 H   0  0  0  0  0  0  0  0  0  0  0  0
    0.0000    0.0000    0.0000 H   0  0  0  0  0  0  0  0  0  0  0  0
    0.0000    0.0000    0.0000 H   0  0  0  0  0  0  0  0  0  0  0  0
    0.0000    0.0000    0.0000 H   0  0  0  0  0  0  0  0  0  0  0  0
    0.0000    0.0000    0.0000 H   0  0  0  0  0  0  0  0  0  0  0  0
    0.0000    0.0000    0.0000 H   0  0  0  0  0  0  0  0  0  0  0  0
    0.0000    0.0000    0.0000 H   0  0  0  0  0  0  0  0  0  0  0  0
    0.0000    0.0000    0.0000 H   0  0  0  0  0  0  0  0  0  0  0  0
    0.0000    0.0000    0.0000 H   0  0  0  0  0  0  0  0  0  0  0  0
    0.0000    0.0000    0.0000 H   0  0  0  0  0  0  0  0  0  0  0  0
    0.0000    0.0000    0.0000 H   0  0  0  0  0  0  0  0  0  0  0  0
    0.0000    0.0000    0.0000 H   0  0  0  0  0  0  0  0  0  0  0  0
   12.4186    5.2693    9.0677 C   0  0  0  0  0  0  0  0  0  0  0  0
   12.7038    4.5339    8.1237 O   0  0  0  0  0  0  0  0  0  0  0  0
   11.1316    5.6249    9.3410 O   0  0  0  0  0  0  0  0  0  0  0  0
   10.4836    5.6828    8.5562 H   0  0  0  0  0  0  0  0  0  0  0  0
  1  3  2  0
  1  4  1  0
  1  5  1  0
  2  4  1  0
  2  6  1  0
  4  9  1  0
  4 15  1  0
  5  6  1  0
  5  8  1  0
  6  7  2  3
  9 10  2  0
  9 14  1  0
 10 11  1  0
 11 12  2  0
 12 13  1  0
 13 14  2  0
 15 16  2  0
 15 20  1  0
 16 17  1  0
 17 18  2  0
 18 19  1  0
 19 20  2  0
  2 21  1  0
  7 22  1  0
  8 23  1  0
  8 24  1  0
  8 25  1  0
 10 26  1  0
 11 27  1  0
 12 28  1  0
 13 29  1  0
 14 30  1  0
 16 31  1  0
 17 32  1  0
 19 33  1  0
 20 34  1  0
 35 36  2  0
 35 37  1  0
 37 38  1  0
 18 35  1  0
M  END
>  <attachment_point>  (10) 
32

>  <score>  (10) 
<NA>

$$$$
4djw
     RDKit          3D

 38 40  0  0  0  0  0  0  0  0999 V2000
   22.4950   11.8750   22.5810 C   0  0  0  0  0  0  0  0  0  0  0  0
   22.5380    9.4930   22.4640 N   0  0  0  0  0  0  0  0  0  0  0  0
   22.3600   13.0630   22.3480 O   0  0  0  0  0  0  0  0  0  0  0  0
   22.3390   10.6680   21.5610 C   0  0  0  0  0  0  0  0  0  0  0  0
   22.7860   11.3350   23.8120 N   0  0  0  0  0  0  0  0  0  0  0  0
   22.7800    9.9140   23.7010 C   0  0  0  0  0  0  0  0  0  0  0  0
   22.9970    9.1110   24.7490 N   0  0  0  0  0  0  0  0  0  0  0  0
   23.0220   12.1410   25.0180 C   0  0  0  0  0  0  0  0  0  0  0  0
   20.9020   10.6270   21.0050 C   0  0  0  0  0  0  0  0  0  0  0  0
   20.2720    9.4140   20.7470 C   0  0  0  0  0  0  0  0  0  0  0  0
   18.9690    9.3760   20.2600 C   0  0  0  0  0  0  0  0  0  0  0  0
   18.2800   10.5440   20.0210 C   0  0  0  0  0  0  0  0  0  0  0  0
   18.8920   11.7530   20.2590 C   0  0  0  0  0  0  0  0  0  0  0  0
   20.1950   11.7970   20.7440 C   0  0  0  0  0  0  0  0  0  0  0  0
   23.4880   10.6920   20.5300 C   0  0  0  0  0  0  0  0  0  0  0  0
   23.2110   10.7890   19.1730 C   0  0  0  0  0  0  0  0  0  0  0  0
   24.2350   10.8650   18.2430 C   0  0  0  0  0  0  0  0  0  0  0  0
   25.5500   10.8410   18.6560 C   0  0  0  0  0  0  0  0  0  0  0  0
   25.8710   10.7460   20.0070 C   0  0  0  0  0  0  0  0  0  0  0  0
   24.8260   10.6610   20.9430 C   0  0  0  0  0  0  0  0  0  0  0  0
    0.0000    0.0000    0.0000 H   0  0  0  0  0  0  0  0  0  0  0  0
    0.0000    0.0000    0.0000 H   0  0  0  0  0  0  0  0  0  0  0  0
    0.0000    0.0000    0.0000 H   0  0  0  0  0  0  0  0  0  0  0  0
    0.0000    0.0000    0.0000 H   0  0  0  0  0  0  0  0  0  0  0  0
    0.0000    0.0000    0.0000 H   0  0  0  0  0  0  0  0  0  0  0  0
    0.0000    0.0000    0.0000 H   0  0  0  0  0  0  0  0  0  0  0  0
    0.0000    0.0000    0.0000 H   0  0  0  0  0  0  0  0  0  0  0  0
    0.0000    0.0000    0.0000 H   0  0  0  0  0  0  0  0  0  0  0  0
    0.0000    0.0000    0.0000 H   0  0  0  0  0  0  0  0  0  0  0  0
    0.0000    0.0000    0.0000 H   0  0  0  0  0  0  0  0  0  0  0  0
    0.0000    0.0000    0.0000 H   0  0  0  0  0  0  0  0  0  0  0  0
    0.0000    0.0000    0.0000 H   0  0  0  0  0  0  0  0  0  0  0  0
    0.0000    0.0000    0.0000 H   0  0  0  0  0  0  0  0  0  0  0  0
    0.0000    0.0000    0.0000 H   0  0  0  0  0  0  0  0  0  0  0  0
   12.4135    5.2671    9.0640 C   0  0  0  0  0  0  0  0  0  0  0  0
   11.8126    6.3696    8.5285 F   0  0  0  0  0  0  0  0  0  0  0  0
   11.6157    4.5631    9.9288 F   0  0  0  0  0  0  0  0  0  0  0  0
   12.9948    4.4500    8.0978 F   0  0  0  0  0  0  0  0  0  0  0  0
  1  3  2  0
  1  4  1  0
  1  5  1  0
  2  4  1  0
  2  6  1  0
  4  9  1  0
  4 15  1  0
  5  6  1  0
  5  8  1  0
  6  7  2  3
  9 10  2  0
  9 14  1  0
 10 11  1  0
 11 12  2  0
 12 13  1  0
 13 14  2  0
 15 16  2  0
 15 20  1  0
 16 17  1  0
 17 18  2  0
 18 19  1  0
 19 20  2  0
  2 21  1  0
  7 22  1  0
  8 23  1  0
  8 24  1  0
  8 25  1  0
 10 26  1  0
 11 27  1  0
 12 28  1  0
 13 29  1  0
 14 30  1  0
 16 31  1  0
 17 32  1  0
 19 33  1  0
 20 34  1  0
 35 36  1  0
 35 37  1  0
 35 38  1  0
 18 35  1  0
M  END
>  <attachment_point>  (11) 
32

>  <score>  (11) 
<NA>

$$$$
4djw
     RDKit          3D

 44 46  0  0  0  0  0  0  0  0999 V2000
   22.4950   11.8750   22.5810 C   0  0  0  0  0  0  0  0  0  0  0  0
   22.5380    9.4930   22.4640 N   0  0  0  0  0  0  0  0  0  0  0  0
   22.3600   13.0630   22.3480 O   0  0  0  0  0  0  0  0  0  0  0  0
   22.3390   10.6680   21.5610 C   0  0  0  0  0  0  0  0  0  0  0  0
   22.7860   11.3350   23.8120 N   0  0  0  0  0  0  0  0  0  0  0  0
   22.7800    9.9140   23.7010 C   0  0  0  0  0  0  0  0  0  0  0  0
   22.9970    9.1110   24.7490 N   0  0  0  0  0  0  0  0  0  0  0  0
   23.0220   12.1410   25.0180 C   0  0  0  0  0  0  0  0  0  0  0  0
   20.9020   10.6270   21.0050 C   0  0  0  0  0  0  0  0  0  0  0  0
   20.2720    9.4140   20.7470 C   0  0  0  0  0  0  0  0  0  0  0  0
   18.9690    9.3760   20.2600 C   0  0  0  0  0  0  0  0  0  0  0  0
   18.2800   10.5440   20.0210 C   0  0  0  0  0  0  0  0  0  0  0  0
   18.8920   11.7530   20.2590 C   0  0  0  0  0  0  0  0  0  0  0  0
   20.1950   11.7970   20.7440 C   0  0  0  0  0  0  0  0  0  0  0  0
   23.4880   10.6920   20.5300 C   0  0  0  0  0  0  0  0  0  0  0  0
   23.2110   10.7890   19.1730 C   0  0  0  0  0  0  0  0  0  0  0  0
   24.2350   10.8650   18.2430 C   0  0  0  0  0  0  0  0  0  0  0  0
   25.5500   10.8410   18.6560 C   0  0  0  0  0  0  0  0  0  0  0  0
   25.8710   10.7460   20.0070 C   0  0  0  0  0  0  0  0  0  0  0  0
   24.8260   10.6610   20.9430 C   0  0  0  0  0  0  0  0  0  0  0  0
    0.0000    0.0000    0.0000 H   0  0  0  0  0  0  0  0  0  0  0  0
    0.0000    0.0000    0.0000 H   0  0  0  0  0  0  0  0  0  0  0  0
    0.0000    0.0000    0.0000 H   0  0  0  0  0  0  0  0  0  0  0  0
    0.0000    0.0000    0.0000 H   0  0  0  0  0  0  0  0  0  0  0  0
    0.0000    0.0000    0.0000 H   0  0  0  0  0  0  0  0  0  0  0  0
    0.0000    0.0000    0.0000 H   0  0  0  0  0  0  0  0  0  0  0  0
    0.0000    0.0000    0.0000 H   0  0  0  0  0  0  0  0  0  0  0  0
    0.0000    0.0000    0.0000 H   0  0  0  0  0  0  0  0  0  0  0  0
    0.0000    0.0000    0.0000 H   0  0  0  0  0  0  0  0  0  0  0  0
    0.0000    0.0000    0.0000 H   0  0  0  0  0  0  0  0  0  0  0  0
    0.0000    0.0000    0.0000 H   0  0  0  0  0  0  0  0  0  0  0  0
    0.0000    0.0000    0.0000 H   0  0  0  0  0  0  0  0  0  0  0  0
    0.0000    0.0000    0.0000 H   0  0  0  0  0  0  0  0  0  0  0  0
    0.0000    0.0000    0.0000 H   0  0  0  0  0  0  0  0  0  0  0  0
   12.4487    5.2820    9.0897 C   0  0  0  0  0  0  0  0  0  0  0  0
   11.2406    6.1851    9.1528 C   0  0  0  0  0  0  0  0  0  0  0  0
   12.8254    5.1337    7.6265 C   0  0  0  0  0  0  0  0  0  0  0  0
   12.1963    4.2804    9.5293 H   0  0  0  0  0  0  0  0  0  0  0  0
   11.2171    6.9033    8.3005 H   0  0  0  0  0  0  0  0  0  0  0  0
   10.3423    5.5335    9.0675 H   0  0  0  0  0  0  0  0  0  0  0  0
   11.2330    6.7593   10.0766 H   0  0  0  0  0  0  0  0  0  0  0  0
   13.7903    5.6753    7.4740 H   0  0  0  0  0  0  0  0  0  0  0  0
   12.8911    4.0611    7.3549 H   0  0  0  0  0  0  0  0  0  0  0  0
   12.0456    5.5657    6.9514 H   0  0  0  0  0  0  0  0  0  0  0  0
  1  3  2  0
  1  4  1  0
  1  5  1  0
  2  4  1  0
  2  6  1  0
  4  9  1  0
  4 15  1  0
  5  6  1  0
  5  8  1  0
  6  7  2  3
  9 10  2  0
  9 14  1  0
 10 11  1  0
 11 12  2  0
 12 13  1  0
 13 14  2  0
 15 16  2  0
 15 20  1  0
 16 17  1  0
 17 18  2  0
 18 19  1  0
 19 20  2  0
  2 21  1  0
  7 22  1  0
  8 23  1  0
  8 24  1  0
  8 25  1  0
 10 26  1  0
 11 27  1  0
 12 28  1  0
 13 29  1  0
 14 30  1  0
 16 31  1  0
 17 32  1  0
 19 33  1  0
 20 34  1  0
 35 36  1  0
 35 37  1  0
 35 38  1  0
 36 39  1  0
 36 40  1  0
 36 41  1  0
 37 42  1  0
 37 43  1  0
 37 44  1  0
 18 35  1  0
M  END
>  <attachment_point>  (12) 
32

>  <score>  (12) 
<NA>

$$$$
4djw
     RDKit          3D

 48 51  0  0  0  0  0  0  0  0999 V2000
   22.4950   11.8750   22.5810 C   0  0  0  0  0  0  0  0  0  0  0  0
   22.5380    9.4930   22.4640 N   0  0  0  0  0  0  0  0  0  0  0  0
   22.3600   13.0630   22.3480 O   0  0  0  0  0  0  0  0  0  0  0  0
   22.3390   10.6680   21.5610 C   0  0  0  0  0  0  0  0  0  0  0  0
   22.7860   11.3350   23.8120 N   0  0  0  0  0  0  0  0  0  0  0  0
   22.7800    9.9140   23.7010 C   0  0  0  0  0  0  0  0  0  0  0  0
   22.9970    9.1110   24.7490 N   0  0  0  0  0  0  0  0  0  0  0  0
   23.0220   12.1410   25.0180 C   0  0  0  0  0  0  0  0  0  0  0  0
   20.9020   10.6270   21.0050 C   0  0  0  0  0  0  0  0  0  0  0  0
   20.2720    9.4140   20.7470 C   0  0  0  0  0  0  0  0  0  0  0  0
   18.9690    9.3760   20.2600 C   0  0  0  0  0  0  0  0  0  0  0  0
   18.2800   10.5440   20.0210 C   0  0  0  0  0  0  0  0  0  0  0  0
   18.8920   11.7530   20.2590 C   0  0  0  0  0  0  0  0  0  0  0  0
   20.1950   11.7970   20.7440 C   0  0  0  0  0  0  0  0  0  0  0  0
   23.4880   10.6920   20.5300 C   0  0  0  0  0  0  0  0  0  0  0  0
   23.2110   10.7890   19.1730 C   0  0  0  0  0  0  0  0  0  0  0  0
   24.2350   10.8650   18.2430 C   0  0  0  0  0  0  0  0  0  0  0  0
   25.5500   10.8410   18.6560 C   0  0  0  0  0  0  0  0  0  0  0  0
   25.8710   10.7460   20.0070 C   0  0  0  0  0  0  0  0  0  0  0  0
   24.8260   10.6610   20.9430 C   0  0  0  0  0  0  0  0  0  0  0  0
    0.0000    0.0000    0.0000 H   0  0  0  0  0  0  0  0  0  0  0  0
    0.0000    0.0000    0.0000 H   0  0  0  0  0  0  0  0  0  0  0  0
    0.0000    0.0000    0.0000 H   0  0  0  0  0  0  0  0  0  0  0  0
    0.0000    0.0000    0.0000 H   0  0  0  0  0  0  0  0  0  0  0  0
    0.0000    0.0000    0.0000 H   0  0  0  0  0  0  0  0  0  0  0  0
    0.0000    0.0000    0.0000 H   0  0  0  0  0  0  0  0  0  0  0  0
    0.0000    0.0000    0.0000 H   0  0  0  0  0  0  0  0  0  0  0  0
    0.0000    0.0000    0.0000 H   0  0  0  0  0  0  0  0  0  0  0  0
    0.0000    0.0000    0.0000 H   0  0  0  0  0  0  0  0  0  0  0  0
    0.0000    0.0000    0.0000 H   0  0  0  0  0  0  0  0  0  0  0  0
    0.0000    0.0000    0.0000 H   0  0  0  0  0  0  0  0  0  0  0  0
    0.0000    0.0000    0.0000 H   0  0  0  0  0  0  0  0  0  0  0  0
    0.0000    0.0000    0.0000 H   0  0  0  0  0  0  0  0  0  0  0  0
    0.0000    0.0000    0.0000 H   0  0  0  0  0  0  0  0  0  0  0  0
   12.4270    5.2729    9.0739 C   0  0  0  0  0  0  0  0  0  0  0  0
   12.8009    3.9958    8.4351 C   0  0  0  0  0  0  0  0  0  0  0  0
   13.4089    4.0358    7.1925 C   0  0  0  0  0  0  0  0  0  0  0  0
   13.7472    2.8337    6.6191 C   0  0  0  0  0  0  0  0  0  0  0  0
   13.5064    1.6147    7.2275 C   0  0  0  0  0  0  0  0  0  0  0  0
   12.8984    1.5817    8.4694 C   0  0  0  0  0  0  0  0  0  0  0  0
   12.5536    2.7859    9.0559 C   0  0  0  0  0  0  0  0  0  0  0  0
   11.6455    5.1273    9.8723 H   0  0  0  0  0  0  0  0  0  0  0  0
   12.1455    6.0452    8.3450 H   0  0  0  0  0  0  0  0  0  0  0  0
   13.6048    4.9918    6.7011 H   0  0  0  0  0  0  0  0  0  0  0  0
   14.2268    2.8132    5.6436 H   0  0  0  0  0  0  0  0  0  0  0  0
   13.8054    0.6956    6.7069 H   0  0  0  0  0  0  0  0  0  0  0  0
   12.7064    0.6199    8.9535 H   0  0  0  0  0  0  0  0  0  0  0  0
   12.0736    2.7330   10.0393 H   0  0  0  0  0  0  0  0  0  0  0  0
  1  3  2  0
  1  4  1  0
  1  5  1  0
  2  4  1  0
  2  6  1  0
  4  9  1  0
  4 15  1  0
  5  6  1  0
  5  8  1  0
  6  7  2  3
  9 10  2  0
  9 14  1  0
 10 11  1  0
 11 12  2  0
 12 13  1  0
 13 14  2  0
 15 16  2  0
 15 20  1  0
 16 17  1  0
 17 18  2  0
 18 19  1  0
 19 20  2  0
  2 21  1  0
  7 22  1  0
  8 23  1  0
  8 24  1  0
  8 25  1  0
 10 26  1  0
 11 27  1  0
 12 28  1  0
 13 29  1  0
 14 30  1  0
 16 31  1  0
 17 32  1  0
 19 33  1  0
 20 34  1  0
 35 36  1  0
 36 37  2  0
 37 38  1  0
 38 39  2  0
 39 40  1  0
 40 41  2  0
 41 36  1  0
 35 42  1  0
 35 43  1  0
 37 44  1  0
 38 45  1  0
 39 46  1  0
 40 47  1  0
 41 48  1  0
 18 35  1  0
M  END
>  <attachment_point>  (13) 
32

>  <score>  (13) 
<NA>

$$$$
4djw
     RDKit          3D

 44 47  0  0  0  0  0  0  0  0999 V2000
   22.4950   11.8750   22.5810 C   0  0  0  0  0  0  0  0  0  0  0  0
   22.5380    9.4930   22.4640 N   0  0  0  0  0  0  0  0  0  0  0  0
   22.3600   13.0630   22.3480 O   0  0  0  0  0  0  0  0  0  0  0  0
   22.3390   10.6680   21.5610 C   0  0  0  0  0  0  0  0  0  0  0  0
   22.7860   11.3350   23.8120 N   0  0  0  0  0  0  0  0  0  0  0  0
   22.7800    9.9140   23.7010 C   0  0  0  0  0  0  0  0  0  0  0  0
   22.9970    9.1110   24.7490 N   0  0  0  0  0  0  0  0  0  0  0  0
   23.0220   12.1410   25.0180 C   0  0  0  0  0  0  0  0  0  0  0  0
   20.9020   10.6270   21.0050 C   0  0  0  0  0  0  0  0  0  0  0  0
   20.2720    9.4140   20.7470 C   0  0  0  0  0  0  0  0  0  0  0  0
   18.9690    9.3760   20.2600 C   0  0  0  0  0  0  0  0  0  0  0  0
   18.2800   10.5440   20.0210 C   0  0  0  0  0  0  0  0  0  0  0  0
   18.8920   11.7530   20.2590 C   0  0  0  0  0  0  0  0  0  0  0  0
   20.1950   11.7970   20.7440 C   0  0  0  0  0  0  0  0  0  0  0  0
   23.4880   10.6920   20.5300 C   0  0  0  0  0  0  0  0  0  0  0  0
   23.2110   10.7890   19.1730 C   0  0  0  0  0  0  0  0  0  0  0  0
   24.2350   10.8650   18.2430 C   0  0  0  0  0  0  0  0  0  0  0  0
   25.5500   10.8410   18.6560 C   0  0  0  0  0  0  0  0  0  0  0  0
   25.8710   10.7460   20.0070 C   0  0  0  0  0  0  0  0  0  0  0  0
   24.8260   10.6610   20.9430 C   0  0  0  0  0  0  0  0  0  0  0  0
    0.0000    0.0000    0.0000 H   0  0  0  0  0  0  0  0  0  0  0  0
    0.0000    0.0000    0.0000 H   0  0  0  0  0  0  0  0  0  0  0  0
    0.0000    0.0000    0.0000 H   0  0  0  0  0  0  0  0  0  0  0  0
    0.0000    0.0000    0.0000 H   0  0  0  0  0  0  0  0  0  0  0  0
    0.0000    0.0000    0.0000 H   0  0  0  0  0  0  0  0  0  0  0  0
    0.0000    0.0000    0.0000 H   0  0  0  0  0  0  0  0  0  0  0  0
    0.0000    0.0000    0.0000 H   0  0  0  0  0  0  0  0  0  0  0  0
    0.0000    0.0000    0.0000 H   0  0  0  0  0  0  0  0  0  0  0  0
    0.0000    0.0000    0.0000 H   0  0  0  0  0  0  0  0  0  0  0  0
    0.0000    0.0000    0.0000 H   0  0  0  0  0  0  0  0  0  0  0  0
    0.0000    0.0000    0.0000 H   0  0  0  0  0  0  0  0  0  0  0  0
    0.0000    0.0000    0.0000 H   0  0  0  0  0  0  0  0  0  0  0  0
    0.0000    0.0000    0.0000 H   0  0  0  0  0  0  0  0  0  0  0  0
    0.0000    0.0000    0.0000 H   0  0  0  0  0  0  0  0  0  0  0  0
   12.3978    5.2605    9.0526 C   0  0  0  0  0  0  0  0  0  0  0  0
   12.6119    4.5428    7.9507 C   0  0  0  0  0  0  0  0  0  0  0  0
   11.4736    4.1329    7.2333 C   0  0  0  0  0  0  0  0  0  0  0  0
   10.2018    4.4560    7.6476 C   0  0  0  0  0  0  0  0  0  0  0  0
   10.0532    5.1818    8.7670 N   0  0  0  0  0  0  0  0  0  0  0  0
   11.1490    5.5911    9.4803 C   0  0  0  0  0  0  0  0  0  0  0  0
   13.5853    4.2776    7.6055 H   0  0  0  0  0  0  0  0  0  0  0  0
   11.5849    3.5548    6.3413 H   0  0  0  0  0  0  0  0  0  0  0  0
    9.3197    4.1315    7.0812 H   0  0  0  0  0  0  0  0  0  0  0  0
   11.0581    6.1762   10.3847 H   0  0  0  0  0  0  0  0  0  0  0  0
  1  3  2  0
  1  4  1  0
  1  5  1  0
  2  4  1  0
  2  6  1  0
  4  9  1  0
  4 15  1  0
  5  6  1  0
  5  8  1  0
  6  7  2  3
  9 10  2  0
  9 14  1  0
 10 11  1  0
 11 12  2  0
 12 13  1  0
 13 14  2  0
 15 16  2  0
 15 20  1  0
 16 17  1  0
 17 18  2  0
 18 19  1  0
 19 20  2  0
  2 21  1  0
  7 22  1  0
  8 23  1  0
  8 24  1  0
  8 25  1  0
 10 26  1  0
 11 27  1  0
 12 28  1  0
 13 29  1  0
 14 30  1  0
 16 31  1  0
 17 32  1  0
 19 33  1  0
 20 34  1  0
 35 36  2  0
 36 37  1  0
 37 38  2  0
 38 39  1  0
 39 40  2  0
 40 35  1  0
 36 41  1  0
 37 42  1  0
 38 43  1  0
 40 44  1  0
 18 35  1  0
M  END
>  <attachment_point>  (14) 
32

>  <score>  (14) 
<NA>

$$$$
4djw
     RDKit          3D

 44 47  0  0  0  0  0  0  0  0999 V2000
   22.4950   11.8750   22.5810 C   0  0  0  0  0  0  0  0  0  0  0  0
   22.5380    9.4930   22.4640 N   0  0  0  0  0  0  0  0  0  0  0  0
   22.3600   13.0630   22.3480 O   0  0  0  0  0  0  0  0  0  0  0  0
   22.3390   10.6680   21.5610 C   0  0  0  0  0  0  0  0  0  0  0  0
   22.7860   11.3350   23.8120 N   0  0  0  0  0  0  0  0  0  0  0  0
   22.7800    9.9140   23.7010 C   0  0  0  0  0  0  0  0  0  0  0  0
   22.9970    9.1110   24.7490 N   0  0  0  0  0  0  0  0  0  0  0  0
   23.0220   12.1410   25.0180 C   0  0  0  0  0  0  0  0  0  0  0  0
   20.9020   10.6270   21.0050 C   0  0  0  0  0  0  0  0  0  0  0  0
   20.2720    9.4140   20.7470 C   0  0  0  0  0  0  0  0  0  0  0  0
   18.9690    9.3760   20.2600 C   0  0  0  0  0  0  0  0  0  0  0  0
   18.2800   10.5440   20.0210 C   0  0  0  0  0  0  0  0  0  0  0  0
   18.8920   11.7530   20.2590 C   0  0  0  0  0  0  0  0  0  0  0  0
   20.1950   11.7970   20.7440 C   0  0  0  0  0  0  0  0  0  0  0  0
   23.4880   10.6920   20.5300 C   0  0  0  0  0  0  0  0  0  0  0  0
   23.2110   10.7890   19.1730 C   0  0  0  0  0  0  0  0  0  0  0  0
   24.2350   10.8650   18.2430 C   0  0  0  0  0  0  0  0  0  0  0  0
   25.5500   10.8410   18.6560 C   0  0  0  0  0  0  0  0  0  0  0  0
   25.8710   10.7460   20.0070 C   0  0  0  0  0  0  0  0  0  0  0  0
   24.8260   10.6610   20.9430 C   0  0  0  0  0  0  0  0  0  0  0  0
    0.0000    0.0000    0.0000 H   0  0  0  0  0  0  0  0  0  0  0  0
    0.0000    0.0000    0.0000 H   0  0  0  0  0  0  0  0  0  0  0  0
    0.0000    0.0000    0.0000 H   0  0  0  0  0  0  0  0  0  0  0  0
    0.0000    0.0000    0.0000 H   0  0  0  0  0  0  0  0  0  0  0  0
    0.0000    0.0000    0.0000 H   0  0  0  0  0  0  0  0  0  0  0  0
    0.0000    0.0000    0.0000 H   0  0  0  0  0  0  0  0  0  0  0  0
    0.0000    0.0000    0.0000 H   0  0  0  0  0  0  0  0  0  0  0  0
    0.0000    0.0000    0.0000 H   0  0  0  0  0  0  0  0  0  0  0  0
    0.0000    0.0000    0.0000 H   0  0  0  0  0  0  0  0  0  0  0  0
    0.0000    0.0000    0.0000 H   0  0  0  0  0  0  0  0  0  0  0  0
    0.0000    0.0000    0.0000 H   0  0  0  0  0  0  0  0  0  0  0  0
    0.0000    0.0000    0.0000 H   0  0  0  0  0  0  0  0  0  0  0  0
    0.0000    0.0000    0.0000 H   0  0  0  0  0  0  0  0  0  0  0  0
    0.0000    0.0000    0.0000 H   0  0  0  0  0  0  0  0  0  0  0  0
   12.4505    5.2828    9.0910 C   0  0  0  0  0  0  0  0  0  0  0  0
   12.0746    5.9964    7.9810 C   0  0  0  0  0  0  0  0  0  0  0  0
   11.0264    5.5661    7.2016 C   0  0  0  0  0  0  0  0  0  0  0  0
   10.3941    4.4438    7.5571 N   0  0  0  0  0  0  0  0  0  0  0  0
   10.7064    3.6981    8.6257 C   0  0  0  0  0  0  0  0  0  0  0  0
   11.7599    4.1321    9.4075 C   0  0  0  0  0  0  0  0  0  0  0  0
   12.6061    6.9166    7.7043 H   0  0  0  0  0  0  0  0  0  0  0  0
   10.7472    6.1520    6.3236 H   0  0  0  0  0  0  0  0  0  0  0  0
   10.1905    2.7948    8.9039 H   0  0  0  0  0  0  0  0  0  0  0  0
   12.0486    3.5497   10.2929 H   0  0  0  0  0  0  0  0  0  0  0  0
  1  3  2  0
  1  4  1  0
  1  5  1  0
  2  4  1  0
  2  6  1  0
  4  9  1  0
  4 15  1  0
  5  6  1  0
  5  8  1  0
  6  7  2  3
  9 10  2  0
  9 14  1  0
 10 11  1  0
 11 12  2  0
 12 13  1  0
 13 14  2  0
 15 16  2  0
 15 20  1  0
 16 17  1  0
 17 18  2  0
 18 19  1  0
 19 20  2  0
  2 21  1  0
  7 22  1  0
  8 23  1  0
  8 24  1  0
  8 25  1  0
 10 26  1  0
 11 27  1  0
 12 28  1  0
 13 29  1  0
 14 30  1  0
 16 31  1  0
 17 32  1  0
 19 33  1  0
 20 34  1  0
 35 36  2  0
 36 37  1  0
 37 38  2  0
 38 39  1  0
 39 40  2  0
 40 35  1  0
 36 41  1  0
 37 42  1  0
 39 43  1  0
 40 44  1  0
 18 35  1  0
M  END
>  <attachment_point>  (15) 
32

>  <score>  (15) 
<NA>

$$$$
4djw
     RDKit          3D

 44 46  0  0  0  0  0  0  0  0999 V2000
   22.4950   11.8750   22.5810 C   0  0  0  0  0  0  0  0  0  0  0  0
   22.5380    9.4930   22.4640 N   0  0  0  0  0  0  0  0  0  0  0  0
   22.3600   13.0630   22.3480 O   0  0  0  0  0  0  0  0  0  0  0  0
   22.3390   10.6680   21.5610 C   0  0  0  0  0  0  0  0  0  0  0  0
   22.7860   11.3350   23.8120 N   0  0  0  0  0  0  0  0  0  0  0  0
   22.7800    9.9140   23.7010 C   0  0  0  0  0  0  0  0  0  0  0  0
   22.9970    9.1110   24.7490 N   0  0  0  0  0  0  0  0  0  0  0  0
   23.0220   12.1410   25.0180 C   0  0  0  0  0  0  0  0  0  0  0  0
   20.9020   10.6270   21.0050 C   0  0  0  0  0  0  0  0  0  0  0  0
   20.2720    9.4140   20.7470 C   0  0  0  0  0  0  0  0  0  0  0  0
   18.9690    9.3760   20.2600 C   0  0  0  0  0  0  0  0  0  0  0  0
   18.2800   10.5440   20.0210 C   0  0  0  0  0  0  0  0  0  0  0  0
   18.8920   11.7530   20.2590 C   0  0  0  0  0  0  0  0  0  0  0  0
   20.1950   11.7970   20.7440 C   0  0  0  0  0  0  0  0  0  0  0  0
   23.4880   10.6920   20.5300 C   0  0  0  0  0  0  0  0  0  0  0  0
   23.2110   10.7890   19.1730 C   0  0  0  0  0  0  0  0  0  0  0  0
   24.2350   10.8650   18.2430 C   0  0  0  0  0  0  0  0  0  0  0  0
   25.5500   10.8410   18.6560 C   0  0  0  0  0  0  0  0  0  0  0  0
   25.8710   10.7460   20.0070 C   0  0  0  0  0  0  0  0  0  0  0  0
   24.8260   10.6610   20.9430 C   0  0  0  0  0  0  0  0  0  0  0  0
    0.0000    0.0000    0.0000 H   0  0  0  0  0  0  0  0  0  0  0  0
    0.0000    0.0000    0.0000 H   0  0  0  0  0  0  0  0  0  0  0  0
    0.0000    0.0000    0.0000 H   0  0  0  0  0  0  0  0  0  0  0  0
    0.0000    0.0000    0.0000 H   0  0  0  0  0  0  0  0  0  0  0  0
    0.0000    0.0000    0.0000 H   0  0  0  0  0  0  0  0  0  0  0  0
    0.0000    0.0000    0.0000 H   0  0  0  0  0  0  0  0  0  0  0  0
    0.0000    0.0000    0.0000 H   0  0  0  0  0  0  0  0  0  0  0  0
    0.0000    0.0000    0.0000 H   0  0  0  0  0  0  0  0  0  0  0  0
    0.0000    0.0000    0.0000 H   0  0  0  0  0  0  0  0  0  0  0  0
    0.0000    0.0000    0.0000 H   0  0  0  0  0  0  0  0  0  0  0  0
    0.0000    0.0000    0.0000 H   0  0  0  0  0  0  0  0  0  0  0  0
    0.0000    0.0000    0.0000 H   0  0  0  0  0  0  0  0  0  0  0  0
    0.0000    0.0000    0.0000 H   0  0  0  0  0  0  0  0  0  0  0  0
    0.0000    0.0000    0.0000 H   0  0  0  0  0  0  0  0  0  0  0  0
   12.4588    5.2863    9.0971 C   0  0  0  0  0  0  0  0  0  0  0  0
   12.9201    5.2059    7.6494 C   0  0  0  0  0  0  0  0  0  0  0  0
   13.3615    6.5703    7.1622 C   0  0  0  0  0  0  0  0  0  0  0  0
   11.6181    6.0035    9.1480 H   0  0  0  0  0  0  0  0  0  0  0  0
   12.1169    4.3292    9.4821 H   0  0  0  0  0  0  0  0  0  0  0  0
   12.1097    4.7879    7.0079 H   0  0  0  0  0  0  0  0  0  0  0  0
   13.7747    4.5065    7.5854 H   0  0  0  0  0  0  0  0  0  0  0  0
   12.7922    6.8808    6.2441 H   0  0  0  0  0  0  0  0  0  0  0  0
   14.4607    6.5753    6.9658 H   0  0  0  0  0  0  0  0  0  0  0  0
   13.1677    7.3068    7.9699 H   0  0  0  0  0  0  0  0  0  0  0  0
  1  3  2  0
  1  4  1  0
  1  5  1  0
  2  4  1  0
  2  6  1  0
  4  9  1  0
  4 15  1  0
  5  6  1  0
  5  8  1  0
  6  7  2  3
  9 10  2  0
  9 14  1  0
 10 11  1  0
 11 12  2  0
 12 13  1  0
 13 14  2  0
 15 16  2  0
 15 20  1  0
 16 17  1  0
 17 18  2  0
 18 19  1  0
 19 20  2  0
  2 21  1  0
  7 22  1  0
  8 23  1  0
  8 24  1  0
  8 25  1  0
 10 26  1  0
 11 27  1  0
 12 28  1  0
 13 29  1  0
 14 30  1  0
 16 31  1  0
 17 32  1  0
 19 33  1  0
 20 34  1  0
 35 36  1  0
 36 37  1  0
 35 38  1  0
 35 39  1  0
 36 40  1  0
 36 41  1  0
 37 42  1  0
 37 43  1  0
 37 44  1  0
 18 35  1  0
M  END
>  <attachment_point>  (16) 
32

>  <score>  (16) 
<NA>

$$$$
4djw
     RDKit          3D

 43 45  0  0  0  0  0  0  0  0999 V2000
   22.4950   11.8750   22.5810 C   0  0  0  0  0  0  0  0  0  0  0  0
   22.5380    9.4930   22.4640 N   0  0  0  0  0  0  0  0  0  0  0  0
   22.3600   13.0630   22.3480 O   0  0  0  0  0  0  0  0  0  0  0  0
   22.3390   10.6680   21.5610 C   0  0  0  0  0  0  0  0  0  0  0  0
   22.7860   11.3350   23.8120 N   0  0  0  0  0  0  0  0  0  0  0  0
   22.7800    9.9140   23.7010 C   0  0  0  0  0  0  0  0  0  0  0  0
   22.9970    9.1110   24.7490 N   0  0  0  0  0  0  0  0  0  0  0  0
   23.0220   12.1410   25.0180 C   0  0  0  0  0  0  0  0  0  0  0  0
   20.9020   10.6270   21.0050 C   0  0  0  0  0  0  0  0  0  0  0  0
   20.2720    9.4140   20.7470 C   0  0  0  0  0  0  0  0  0  0  0  0
   18.9690    9.3760   20.2600 C   0  0  0  0  0  0  0  0  0  0  0  0
   18.2800   10.5440   20.0210 C   0  0  0  0  0  0  0  0  0  0  0  0
   18.8920   11.7530   20.2590 C   0  0  0  0  0  0  0  0  0  0  0  0
   20.1950   11.7970   20.7440 C   0  0  0  0  0  0  0  0  0  0  0  0
   23.4880   10.6920   20.5300 C   0  0  0  0  0  0  0  0  0  0  0  0
   23.2110   10.7890   19.1730 C   0  0  0  0  0  0  0  0  0  0  0  0
   24.2350   10.8650   18.2430 C   0  0  0  0  0  0  0  0  0  0  0  0
   25.5500   10.8410   18.6560 C   0  0  0  0  0  0  0  0  0  0  0  0
   25.8710   10.7460   20.0070 C   0  0  0  0  0  0  0  0  0  0  0  0
   24.8260   10.6610   20.9430 C   0  0  0  0  0  0  0  0  0  0  0  0
    0.0000    0.0000    0.0000 H   0  0  0  0  0  0  0  0  0  0  0  0
    0.0000    0.0000    0.0000 H   0  0  0  0  0  0  0  0  0  0  0  0
    0.0000    0.0000    0.0000 H   0  0  0  0  0  0  0  0  0  0  0  0
    0.0000    0.0000    0.0000 H   0  0  0  0  0  0  0  0  0  0  0  0
    0.0000    0.0000    0.0000 H   0  0  0  0  0  0  0  0  0  0  0  0
    0.0000    0.0000    0.0000 H   0  0  0  0  0  0  0  0  0  0  0  0
    0.0000    0.0000    0.0000 H   0  0  0  0  0  0  0  0  0  0  0  0
    0.0000    0.0000    0.0000 H   0  0  0  0  0  0  0  0  0  0  0  0
    0.0000    0.0000    0.0000 H   0  0  0  0  0  0  0  0  0  0  0  0
    0.0000    0.0000    0.0000 H   0  0  0  0  0  0  0  0  0  0  0  0
    0.0000    0.0000    0.0000 H   0  0  0  0  0  0  0  0  0  0  0  0
    0.0000    0.0000    0.0000 H   0  0  0  0  0  0  0  0  0  0  0  0
    0.0000    0.0000    0.0000 H   0  0  0  0  0  0  0  0  0  0  0  0
    0.0000    0.0000    0.0000 H   0  0  0  0  0  0  0  0  0  0  0  0
   12.5369    5.3195    9.1542 N   0  0  0  0  0  0  0  0  0  0  0  0
   11.1835    5.5716    9.6682 C   0  0  0  0  0  0  0  0  0  0  0  0
   12.4537    4.2534    8.1845 C   0  0  0  0  0  0  0  0  0  0  0  0
   11.2086    6.3749   10.4040 H   0  0  0  0  0  0  0  0  0  0  0  0
   10.5727    5.7848    8.7684 H   0  0  0  0  0  0  0  0  0  0  0  0
   10.7975    4.6447   10.1247 H   0  0  0  0  0  0  0  0  0  0  0  0
   13.1224    4.4045    7.3109 H   0  0  0  0  0  0  0  0  0  0  0  0
   12.7219    3.3089    8.7093 H   0  0  0  0  0  0  0  0  0  0  0  0
   11.3913    4.1233    7.8539 H   0  0  0  0  0  0  0  0  0  0  0  0
  1  3  2  0
  1  4  1  0
  1  5  1  0
  2  4  1  0
  2  6  1  0
  4  9  1  0
  4 15  1  0
  5  6  1  0
  5  8  1  0
  6  7  2  3
  9 10  2  0
  9 14  1  0
 10 11  1  0
 11 12  2  0
 12 13  1  0
 13 14  2  0
 15 16  2  0
 15 20  1  0
 16 17  1  0
 17 18  2  0
 18 19  1  0
 19 20  2  0
  2 21  1  0
  7 22  1  0
  8 23  1  0
  8 24  1  0
  8 25  1  0
 10 26  1  0
 11 27  1  0
 12 28  1  0
 13 29  1  0
 14 30  1  0
 16 31  1  0
 17 32  1  0
 19 33  1  0
 20 34  1  0
 35 36  1  0
 35 37  1  0
 36 38  1  0
 36 39  1  0
 36 40  1  0
 37 41  1  0
 37 42  1  0
 37 43  1  0
 18 35  1  0
M  END
>  <attachment_point>  (17) 
32

>  <score>  (17) 
<NA>

$$$$
4djw
     RDKit          3D

 42 44  0  0  0  0  0  0  0  0999 V2000
   22.4950   11.8750   22.5810 C   0  0  0  0  0  0  0  0  0  0  0  0
   22.5380    9.4930   22.4640 N   0  0  0  0  0  0  0  0  0  0  0  0
   22.3600   13.0630   22.3480 O   0  0  0  0  0  0  0  0  0  0  0  0
   22.3390   10.6680   21.5610 C   0  0  0  0  0  0  0  0  0  0  0  0
   22.7860   11.3350   23.8120 N   0  0  0  0  0  0  0  0  0  0  0  0
   22.7800    9.9140   23.7010 C   0  0  0  0  0  0  0  0  0  0  0  0
   22.9970    9.1110   24.7490 N   0  0  0  0  0  0  0  0  0  0  0  0
   23.0220   12.1410   25.0180 C   0  0  0  0  0  0  0  0  0  0  0  0
   20.9020   10.6270   21.0050 C   0  0  0  0  0  0  0  0  0  0  0  0
   20.2720    9.4140   20.7470 C   0  0  0  0  0  0  0  0  0  0  0  0
   18.9690    9.3760   20.2600 C   0  0  0  0  0  0  0  0  0  0  0  0
   18.2800   10.5440   20.0210 C   0  0  0  0  0  0  0  0  0  0  0  0
   18.8920   11.7530   20.2590 C   0  0  0  0  0  0  0  0  0  0  0  0
   20.1950   11.7970   20.7440 C   0  0  0  0  0  0  0  0  0  0  0  0
   23.4880   10.6920   20.5300 C   0  0  0  0  0  0  0  0  0  0  0  0
   23.2110   10.7890   19.1730 C   0  0  0  0  0  0  0  0  0  0  0  0
   24.2350   10.8650   18.2430 C   0  0  0  0  0  0  0  0  0  0  0  0
   25.5500   10.8410   18.6560 C   0  0  0  0  0  0  0  0  0  0  0  0
   25.8710   10.7460   20.0070 C   0  0  0  0  0  0  0  0  0  0  0  0
   24.8260   10.6610   20.9430 C   0  0  0  0  0  0  0  0  0  0  0  0
    0.0000    0.0000    0.0000 H   0  0  0  0  0  0  0  0  0  0  0  0
    0.0000    0.0000    0.0000 H   0  0  0  0  0  0  0  0  0  0  0  0
    0.0000    0.0000    0.0000 H   0  0  0  0  0  0  0  0  0  0  0  0
    0.0000    0.0000    0.0000 H   0  0  0  0  0  0  0  0  0  0  0  0
    0.0000    0.0000    0.0000 H   0  0  0  0  0  0  0  0  0  0  0  0
    0.0000    0.0000    0.0000 H   0  0  0  0  0  0  0  0  0  0  0  0
    0.0000    0.0000    0.0000 H   0  0  0  0  0  0  0  0  0  0  0  0
    0.0000    0.0000    0.0000 H   0  0  0  0  0  0  0  0  0  0  0  0
    0.0000    0.0000    0.0000 H   0  0  0  0  0  0  0  0  0  0  0  0
    0.0000    0.0000    0.0000 H   0  0  0  0  0  0  0  0  0  0  0  0
    0.0000    0.0000    0.0000 H   0  0  0  0  0  0  0  0  0  0  0  0
    0.0000    0.0000    0.0000 H   0  0  0  0  0  0  0  0  0  0  0  0
    0.0000    0.0000    0.0000 H   0  0  0  0  0  0  0  0  0  0  0  0
    0.0000    0.0000    0.0000 H   0  0  0  0  0  0  0  0  0  0  0  0
   12.5168    5.3109    9.1395 O   0  0  0  0  0  0  0  0  0  0  0  0
   12.6907    4.0139    8.6408 C   0  0  0  0  0  0  0  0  0  0  0  0
   11.4798    3.6101    7.8053 C   0  0  0  0  0  0  0  0  0  0  0  0
   12.6895    3.3037    9.5137 H   0  0  0  0  0  0  0  0  0  0  0  0
   13.6355    3.8982    8.0913 H   0  0  0  0  0  0  0  0  0  0  0  0
   11.5598    3.9420    6.7636 H   0  0  0  0  0  0  0  0  0  0  0  0
   10.6175    4.1703    8.2535 H   0  0  0  0  0  0  0  0  0  0  0  0
   11.3383    2.5102    7.8635 H   0  0  0  0  0  0  0  0  0  0  0  0
  1  3  2  0
  1  4  1  0
  1  5  1  0
  2  4  1  0
  2  6  1  0
  4  9  1  0
  4 15  1  0
  5  6  1  0
  5  8  1  0
  6  7  2  3
  9 10  2  0
  9 14  1  0
 10 11  1  0
 11 12  2  0
 12 13  1  0
 13 14  2  0
 15 16  2  0
 15 20  1  0
 16 17  1  0
 17 18  2  0
 18 19  1  0
 19 20  2  0
  2 21  1  0
  7 22  1  0
  8 23  1  0
  8 24  1  0
  8 25  1  0
 10 26  1  0
 11 27  1  0
 12 28  1  0
 13 29  1  0
 14 30  1  0
 16 31  1  0
 17 32  1  0
 19 33  1  0
 20 34  1  0
 35 36  1  0
 36 37  1  0
 36 38  1  0
 36 39  1  0
 37 40  1  0
 37 41  1  0
 37 42  1  0
 18 35  1  0
M  END
>  <attachment_point>  (18) 
32

>  <score>  (18) 
<NA>

$$$$
4djw
     RDKit          3D

 39 41  0  0  0  0  0  0  0  0999 V2000
   22.4950   11.8750   22.5810 C   0  0  0  0  0  0  0  0  0  0  0  0
   22.5380    9.4930   22.4640 N   0  0  0  0  0  0  0  0  0  0  0  0
   22.3600   13.0630   22.3480 O   0  0  0  0  0  0  0  0  0  0  0  0
   22.3390   10.6680   21.5610 C   0  0  0  0  0  0  0  0  0  0  0  0
   22.7860   11.3350   23.8120 N   0  0  0  0  0  0  0  0  0  0  0  0
   22.7800    9.9140   23.7010 C   0  0  0  0  0  0  0  0  0  0  0  0
   22.9970    9.1110   24.7490 N   0  0  0  0  0  0  0  0  0  0  0  0
   23.0220   12.1410   25.0180 C   0  0  0  0  0  0  0  0  0  0  0  0
   20.9020   10.6270   21.0050 C   0  0  0  0  0  0  0  0  0  0  0  0
   20.2720    9.4140   20.7470 C   0  0  0  0  0  0  0  0  0  0  0  0
   18.9690    9.3760   20.2600 C   0  0  0  0  0  0  0  0  0  0  0  0
   18.2800   10.5440   20.0210 C   0  0  0  0  0  0  0  0  0  0  0  0
   18.8920   11.7530   20.2590 C   0  0  0  0  0  0  0  0  0  0  0  0
   20.1950   11.7970   20.7440 C   0  0  0  0  0  0  0  0  0  0  0  0
   23.4880   10.6920   20.5300 C   0  0  0  0  0  0  0  0  0  0  0  0
   23.2110   10.7890   19.1730 C   0  0  0  0  0  0  0  0  0  0  0  0
   24.2350   10.8650   18.2430 C   0  0  0  0  0  0  0  0  0  0  0  0
   25.5500   10.8410   18.6560 C   0  0  0  0  0  0  0  0  0  0  0  0
   25.8710   10.7460   20.0070 C   0  0  0  0  0  0  0  0  0  0  0  0
   24.8260   10.6610   20.9430 C   0  0  0  0  0  0  0  0  0  0  0  0
    0.0000    0.0000    0.0000 H   0  0  0  0  0  0  0  0  0  0  0  0
    0.0000    0.0000    0.0000 H   0  0  0  0  0  0  0  0  0  0  0  0
    0.0000    0.0000    0.0000 H   0  0  0  0  0  0  0  0  0  0  0  0
    0.0000    0.0000    0.0000 H   0  0  0  0  0  0  0  0  0  0  0  0
    0.0000    0.0000    0.0000 H   0  0  0  0  0  0  0  0  0  0  0  0
    0.0000    0.0000    0.0000 H   0  0  0  0  0  0  0  0  0  0  0  0
    0.0000    0.0000    0.0000 H   0  0  0  0  0  0  0  0  0  0  0  0
    0.0000    0.0000    0.0000 H   0  0  0  0  0  0  0  0  0  0  0  0
    0.0000    0.0000    0.0000 H   0  0  0  0  0  0  0  0  0  0  0  0
    0.0000    0.0000    0.0000 H   0  0  0  0  0  0  0  0  0  0  0  0
    0.0000    0.0000    0.0000 H   0  0  0  0  0  0  0  0  0  0  0  0
    0.0000    0.0000    0.0000 H   0  0  0  0  0  0  0  0  0  0  0  0
    0.0000    0.0000    0.0000 H   0  0  0  0  0  0  0  0  0  0  0  0
    0.0000    0.0000    0.0000 H   0  0  0  0  0  0  0  0  0  0  0  0
   12.4359    5.2766    9.0804 C   0  0  0  0  0  0  0  0  0  0  0  0
   11.1391    5.4236    9.5791 N   0  0  0  0  0  0  0  0  0  0  0  0
   12.7700    4.7781    7.9969 O   0  0  0  0  0  0  0  0  0  0  0  0
   10.7423    6.3634    9.7321 H   0  0  0  0  0  0  0  0  0  0  0  0
   10.5695    4.5912    9.7978 H   0  0  0  0  0  0  0  0  0  0  0  0
  1  3  2  0
  1  4  1  0
  1  5  1  0
  2  4  1  0
  2  6  1  0
  4  9  1  0
  4 15  1  0
  5  6  1  0
  5  8  1  0
  6  7  2  3
  9 10  2  0
  9 14  1  0
 10 11  1  0
 11 12  2  0
 12 13  1  0
 13 14  2  0
 15 16  2  0
 15 20  1  0
 16 17  1  0
 17 18  2  0
 18 19  1  0
 19 20  2  0
  2 21  1  0
  7 22  1  0
  8 23  1  0
  8 24  1  0
  8 25  1  0
 10 26  1  0
 11 27  1  0
 12 28  1  0
 13 29  1  0
 14 30  1  0
 16 31  1  0
 17 32  1  0
 19 33  1  0
 20 34  1  0
 35 36  1  0
 35 37  2  0
 36 38  1  0
 36 39  1  0
 18 35  1  0
M  END
>  <attachment_point>  (19) 
32

>  <score>  (19) 
<NA>

$$$$
4djw
     RDKit          3D

 39 41  0  0  0  0  0  0  0  0999 V2000
   22.4950   11.8750   22.5810 C   0  0  0  0  0  0  0  0  0  0  0  0
   22.5380    9.4930   22.4640 N   0  0  0  0  0  0  0  0  0  0  0  0
   22.3600   13.0630   22.3480 O   0  0  0  0  0  0  0  0  0  0  0  0
   22.3390   10.6680   21.5610 C   0  0  0  0  0  0  0  0  0  0  0  0
   22.7860   11.3350   23.8120 N   0  0  0  0  0  0  0  0  0  0  0  0
   22.7800    9.9140   23.7010 C   0  0  0  0  0  0  0  0  0  0  0  0
   22.9970    9.1110   24.7490 N   0  0  0  0  0  0  0  0  0  0  0  0
   23.0220   12.1410   25.0180 C   0  0  0  0  0  0  0  0  0  0  0  0
   20.9020   10.6270   21.0050 C   0  0  0  0  0  0  0  0  0  0  0  0
   20.2720    9.4140   20.7470 C   0  0  0  0  0  0  0  0  0  0  0  0
   18.9690    9.3760   20.2600 C   0  0  0  0  0  0  0  0  0  0  0  0
   18.2800   10.5440   20.0210 C   0  0  0  0  0  0  0  0  0  0  0  0
   18.8920   11.7530   20.2590 C   0  0  0  0  0  0  0  0  0  0  0  0
   20.1950   11.7970   20.7440 C   0  0  0  0  0  0  0  0  0  0  0  0
   23.4880   10.6920   20.5300 C   0  0  0  0  0  0  0  0  0  0  0  0
   23.2110   10.7890   19.1730 C   0  0  0  0  0  0  0  0  0  0  0  0
   24.2350   10.8650   18.2430 C   0  0  0  0  0  0  0  0  0  0  0  0
   25.5500   10.8410   18.6560 C   0  0  0  0  0  0  0  0  0  0  0  0
   25.8710   10.7460   20.0070 C   0  0  0  0  0  0  0  0  0  0  0  0
   24.8260   10.6610   20.9430 C   0  0  0  0  0  0  0  0  0  0  0  0
    0.0000    0.0000    0.0000 H   0  0  0  0  0  0  0  0  0  0  0  0
    0.0000    0.0000    0.0000 H   0  0  0  0  0  0  0  0  0  0  0  0
    0.0000    0.0000    0.0000 H   0  0  0  0  0  0  0  0  0  0  0  0
    0.0000    0.0000    0.0000 H   0  0  0  0  0  0  0  0  0  0  0  0
    0.0000    0.0000    0.0000 H   0  0  0  0  0  0  0  0  0  0  0  0
    0.0000    0.0000    0.0000 H   0  0  0  0  0  0  0  0  0  0  0  0
    0.0000    0.0000    0.0000 H   0  0  0  0  0  0  0  0  0  0  0  0
    0.0000    0.0000    0.0000 H   0  0  0  0  0  0  0  0  0  0  0  0
    0.0000    0.0000    0.0000 H   0  0  0  0  0  0  0  0  0  0  0  0
    0.0000    0.0000    0.0000 H   0  0  0  0  0  0  0  0  0  0  0  0
    0.0000    0.0000    0.0000 H   0  0  0  0  0  0  0  0  0  0  0  0
    0.0000    0.0000    0.0000 H   0  0  0  0  0  0  0  0  0  0  0  0
    0.0000    0.0000    0.0000 H   0  0  0  0  0  0  0  0  0  0  0  0
    0.0000    0.0000    0.0000 H   0  0  0  0  0  0  0  0  0  0  0  0
   12.4857    5.2978    9.1168 C   0  0  0  0  0  0  0  0  0  0  0  0
   11.4696    4.7624    9.9347 O   0  0  0  0  0  0  0  0  0  0  0  0
   11.9797    6.0753    8.4890 H   0  0  0  0  0  0  0  0  0  0  0  0
   12.7848    4.4966    8.3952 H   0  0  0  0  0  0  0  0  0  0  0  0
   10.6484    4.6971    9.3744 H   0  0  0  0  0  0  0  0  0  0  0  0
  1  3  2  0
  1  4  1  0
  1  5  1  0
  2  4  1  0
  2  6  1  0
  4  9  1  0
  4 15  1  0
  5  6  1  0
  5  8  1  0
  6  7  2  3
  9 10  2  0
  9 14  1  0
 10 11  1  0
 11 12  2  0
 12 13  1  0
 13 14  2  0
 15 16  2  0
 15 20  1  0
 16 17  1  0
 17 18  2  0
 18 19  1  0
 19 20  2  0
  2 21  1  0
  7 22  1  0
  8 23  1  0
  8 24  1  0
  8 25  1  0
 10 26  1  0
 11 27  1  0
 12 28  1  0
 13 29  1  0
 14 30  1  0
 16 31  1  0
 17 32  1  0
 19 33  1  0
 20 34  1  0
 35 36  1  0
 35 37  1  0
 35 38  1  0
 36 39  1  0
 18 35  1  0
M  END
>  <attachment_point>  (20) 
32

>  <score>  (20) 
<NA>

$$$$
4djw
     RDKit          3D

 48 51  0  0  0  0  0  0  0  0999 V2000
   22.4950   11.8750   22.5810 C   0  0  0  0  0  0  0  0  0  0  0  0
   22.5380    9.4930   22.4640 N   0  0  0  0  0  0  0  0  0  0  0  0
   22.3600   13.0630   22.3480 O   0  0  0  0  0  0  0  0  0  0  0  0
   22.3390   10.6680   21.5610 C   0  0  0  0  0  0  0  0  0  0  0  0
   22.7860   11.3350   23.8120 N   0  0  0  0  0  0  0  0  0  0  0  0
   22.7800    9.9140   23.7010 C   0  0  0  0  0  0  0  0  0  0  0  0
   22.9970    9.1110   24.7490 N   0  0  0  0  0  0  0  0  0  0  0  0
   23.0220   12.1410   25.0180 C   0  0  0  0  0  0  0  0  0  0  0  0
   20.9020   10.6270   21.0050 C   0  0  0  0  0  0  0  0  0  0  0  0
   20.2720    9.4140   20.7470 C   0  0  0  0  0  0  0  0  0  0  0  0
   18.9690    9.3760   20.2600 C   0  0  0  0  0  0  0  0  0  0  0  0
   18.2800   10.5440   20.0210 C   0  0  0  0  0  0  0  0  0  0  0  0
   18.8920   11.7530   20.2590 C   0  0  0  0  0  0  0  0  0  0  0  0
   20.1950   11.7970   20.7440 C   0  0  0  0  0  0  0  0  0  0  0  0
   23.4880   10.6920   20.5300 C   0  0  0  0  0  0  0  0  0  0  0  0
   23.2110   10.7890   19.1730 C   0  0  0  0  0  0  0  0  0  0  0  0
   24.2350   10.8650   18.2430 C   0  0  0  0  0  0  0  0  0  0  0  0
   25.5500   10.8410   18.6560 C   0  0  0  0  0  0  0  0  0  0  0  0
   25.8710   10.7460   20.0070 C   0  0  0  0  0  0  0  0  0  0  0  0
   24.8260   10.6610   20.9430 C   0  0  0  0  0  0  0  0  0  0  0  0
    0.0000    0.0000    0.0000 H   0  0  0  0  0  0  0  0  0  0  0  0
    0.0000    0.0000    0.0000 H   0  0  0  0  0  0  0  0  0  0  0  0
    0.0000    0.0000    0.0000 H   0  0  0  0  0  0  0  0  0  0  0  0
    0.0000    0.0000    0.0000 H   0  0  0  0  0  0  0  0  0  0  0  0
    0.0000    0.0000    0.0000 H   0  0  0  0  0  0  0  0  0  0  0  0
    0.0000    0.0000    0.0000 H   0  0  0  0  0  0  0  0  0  0  0  0
    0.0000    0.0000    0.0000 H   0  0  0  0  0  0  0  0  0  0  0  0
    0.0000    0.0000    0.0000 H   0  0  0  0  0  0  0  0  0  0  0  0
    0.0000    0.0000    0.0000 H   0  0  0  0  0  0  0  0  0  0  0  0
    0.0000    0.0000    0.0000 H   0  0  0  0  0  0  0  0  0  0  0  0
    0.0000    0.0000    0.0000 H   0  0  0  0  0  0  0  0  0  0  0  0
    0.0000    0.0000    0.0000 H   0  0  0  0  0  0  0  0  0  0  0  0
    0.0000    0.0000    0.0000 H   0  0  0  0  0  0  0  0  0  0  0  0
    0.0000    0.0000    0.0000 H   0  0  0  0  0  0  0  0  0  0  0  0
   12.5457    5.3232    9.1606 N   0  0  0  0  0  0  0  0  0  0  0  0
   11.1280    5.3356    9.5537 C   0  0  0  0  0  0  0  0  0  0  0  0
   10.7921    3.9127    9.9417 C   0  0  0  0  0  0  0  0  0  0  0  0
   11.9459    3.1368   10.1289 O   0  0  0  0  0  0  0  0  0  0  0  0
   12.5185    2.9598    8.8534 C   0  0  0  0  0  0  0  0  0  0  0  0
   12.6153    4.2852    8.1184 C   0  0  0  0  0  0  0  0  0  0  0  0
   10.9237    6.0663   10.3423 H   0  0  0  0  0  0  0  0  0  0  0  0
   10.5902    5.6311    8.6051 H   0  0  0  0  0  0  0  0  0  0  0  0
   10.1899    3.8903   10.8702 H   0  0  0  0  0  0  0  0  0  0  0  0
   10.2458    3.4308    9.0943 H   0  0  0  0  0  0  0  0  0  0  0  0
   11.8501    2.2709    8.2757 H   0  0  0  0  0  0  0  0  0  0  0  0
   13.5279    2.4858    8.9574 H   0  0  0  0  0  0  0  0  0  0  0  0
   11.7118    4.4391    7.4855 H   0  0  0  0  0  0  0  0  0  0  0  0
   13.5414    4.4043    7.5554 H   0  0  0  0  0  0  0  0  0  0  0  0
  1  3  2  0
  1  4  1  0
  1  5  1  0
  2  4  1  0
  2  6  1  0
  4  9  1  0
  4 15  1  0
  5  6  1  0
  5  8  1  0
  6  7  2  3
  9 10  2  0
  9 14  1  0
 10 11  1  0
 11 12  2  0
 12 13  1  0
 13 14  2  0
 15 16  2  0
 15 20  1  0
 16 17  1  0
 17 18  2  0
 18 19  1  0
 19 20  2  0
  2 21  1  0
  7 22  1  0
  8 23  1  0
  8 24  1  0
  8 25  1  0
 10 26  1  0
 11 27  1  0
 12 28  1  0
 13 29  1  0
 14 30  1  0
 16 31  1  0
 17 32  1  0
 19 33  1  0
 20 34  1  0
 35 36  1  0
 36 37  1  0
 37 38  1  0
 38 39  1  0
 39 40  1  0
 40 35  1  0
 36 41  1  0
 36 42  1  0
 37 43  1  0
 37 44  1  0
 39 45  1  0
 39 46  1  0
 40 47  1  0
 40 48  1  0
 18 35  1  0
M  END
>  <attachment_point>  (21) 
32

>  <score>  (21) 
<NA>

$$$$
4djw
     RDKit          3D

 37 39  0  0  0  0  0  0  0  0999 V2000
   22.4950   11.8750   22.5810 C   0  0  0  0  0  0  0  0  0  0  0  0
   22.5380    9.4930   22.4640 N   0  0  0  0  0  0  0  0  0  0  0  0
   22.3600   13.0630   22.3480 O   0  0  0  0  0  0  0  0  0  0  0  0
   22.3390   10.6680   21.5610 C   0  0  0  0  0  0  0  0  0  0  0  0
   22.7860   11.3350   23.8120 N   0  0  0  0  0  0  0  0  0  0  0  0
   22.7800    9.9140   23.7010 C   0  0  0  0  0  0  0  0  0  0  0  0
   22.9970    9.1110   24.7490 N   0  0  0  0  0  0  0  0  0  0  0  0
   23.0220   12.1410   25.0180 C   0  0  0  0  0  0  0  0  0  0  0  0
   20.9020   10.6270   21.0050 C   0  0  0  0  0  0  0  0  0  0  0  0
   20.2720    9.4140   20.7470 C   0  0  0  0  0  0  0  0  0  0  0  0
   18.9690    9.3760   20.2600 C   0  0  0  0  0  0  0  0  0  0  0  0
   18.2800   10.5440   20.0210 C   0  0  0  0  0  0  0  0  0  0  0  0
   18.8920   11.7530   20.2590 C   0  0  0  0  0  0  0  0  0  0  0  0
   20.1950   11.7970   20.7440 C   0  0  0  0  0  0  0  0  0  0  0  0
   23.4880   10.6920   20.5300 C   0  0  0  0  0  0  0  0  0  0  0  0
   23.2110   10.7890   19.1730 C   0  0  0  0  0  0  0  0  0  0  0  0
   24.2350   10.8650   18.2430 C   0  0  0  0  0  0  0  0  0  0  0  0
   25.5500   10.8410   18.6560 C   0  0  0  0  0  0  0  0  0  0  0  0
   25.8710   10.7460   20.0070 C   0  0  0  0  0  0  0  0  0  0  0  0
   24.8260   10.6610   20.9430 C   0  0  0  0  0  0  0  0  0  0  0  0
    0.0000    0.0000    0.0000 H   0  0  0  0  0  0  0  0  0  0  0  0
    0.0000    0.0000    0.0000 H   0  0  0  0  0  0  0  0  0  0  0  0
    0.0000    0.0000    0.0000 H   0  0  0  0  0  0  0  0  0  0  0  0
    0.0000    0.0000    0.0000 H   0  0  0  0  0  0  0  0  0  0  0  0
    0.0000    0.0000    0.0000 H   0  0  0  0  0  0  0  0  0  0  0  0
    0.0000    0.0000    0.0000 H   0  0  0  0  0  0  0  0  0  0  0  0
    0.0000    0.0000    0.0000 H   0  0  0  0  0  0  0  0  0  0  0  0
    0.0000    0.0000    0.0000 H   0  0  0  0  0  0  0  0  0  0  0  0
    0.0000    0.0000    0.0000 H   0  0  0  0  0  0  0  0  0  0  0  0
    0.0000    0.0000    0.0000 H   0  0  0  0  0  0  0  0  0  0  0  0
    0.0000    0.0000    0.0000 H   0  0  0  0  0  0  0  0  0  0  0  0
    0.0000    0.0000    0.0000 H   0  0  0  0  0  0  0  0  0  0  0  0
    0.0000    0.0000    0.0000 H   0  0  0  0  0  0  0  0  0  0  0  0
    0.0000    0.0000    0.0000 H   0  0  0  0  0  0  0  0  0  0  0  0
   12.4544    5.2845    9.0939 N   0  0  0  0  0  4  0  0  0  0  0  0
   11.2875    5.4290    9.4507 O   0  0  0  0  0  0  0  0  0  0  0  0
   12.6934    4.6600    7.8965 O   0  0  0  0  0  1  0  0  0  0  0  0
  1  3  2  0
  1  4  1  0
  1  5  1  0
  2  4  1  0
  2  6  1  0
  4  9  1  0
  4 15  1  0
  5  6  1  0
  5  8  1  0
  6  7  2  3
  9 10  2  0
  9 14  1  0
 10 11  1  0
 11 12  2  0
 12 13  1  0
 13 14  2  0
 15 16  2  0
 15 20  1  0
 16 17  1  0
 17 18  2  0
 18 19  1  0
 19 20  2  0
  2 21  1  0
  7 22  1  0
  8 23  1  0
  8 24  1  0
  8 25  1  0
 10 26  1  0
 11 27  1  0
 12 28  1  0
 13 29  1  0
 14 30  1  0
 16 31  1  0
 17 32  1  0
 19 33  1  0
 20 34  1  0
 35 36  2  0
 35 37  1  0
 18 35  1  0
M  CHG  2  35   1  37  -1
M  END
>  <attachment_point>  (22) 
32

>  <score>  (22) 
<NA>

$$$$
4djw
     RDKit          3D

 47 49  0  0  0  0  0  0  0  0999 V2000
   22.4950   11.8750   22.5810 C   0  0  0  0  0  0  0  0  0  0  0  0
   22.5380    9.4930   22.4640 N   0  0  0  0  0  0  0  0  0  0  0  0
   22.3600   13.0630   22.3480 O   0  0  0  0  0  0  0  0  0  0  0  0
   22.3390   10.6680   21.5610 C   0  0  0  0  0  0  0  0  0  0  0  0
   22.7860   11.3350   23.8120 N   0  0  0  0  0  0  0  0  0  0  0  0
   22.7800    9.9140   23.7010 C   0  0  0  0  0  0  0  0  0  0  0  0
   22.9970    9.1110   24.7490 N   0  0  0  0  0  0  0  0  0  0  0  0
   23.0220   12.1410   25.0180 C   0  0  0  0  0  0  0  0  0  0  0  0
   20.9020   10.6270   21.0050 C   0  0  0  0  0  0  0  0  0  0  0  0
   20.2720    9.4140   20.7470 C   0  0  0  0  0  0  0  0  0  0  0  0
   18.9690    9.3760   20.2600 C   0  0  0  0  0  0  0  0  0  0  0  0
   18.2800   10.5440   20.0210 C   0  0  0  0  0  0  0  0  0  0  0  0
   18.8920   11.7530   20.2590 C   0  0  0  0  0  0  0  0  0  0  0  0
   20.1950   11.7970   20.7440 C   0  0  0  0  0  0  0  0  0  0  0  0
   23.4880   10.6920   20.5300 C   0  0  0  0  0  0  0  0  0  0  0  0
   23.2110   10.7890   19.1730 C   0  0  0  0  0  0  0  0  0  0  0  0
   24.2350   10.8650   18.2430 C   0  0  0  0  0  0  0  0  0  0  0  0
   25.5500   10.8410   18.6560 C   0  0  0  0  0  0  0  0  0  0  0  0
   25.8710   10.7460   20.0070 C   0  0  0  0  0  0  0  0  0  0  0  0
   24.8260   10.6610   20.9430 C   0  0  0  0  0  0  0  0  0  0  0  0
    0.0000    0.0000    0.0000 H   0  0  0  0  0  0  0  0  0  0  0  0
    0.0000    0.0000    0.0000 H   0  0  0  0  0  0  0  0  0  0  0  0
    0.0000    0.0000    0.0000 H   0  0  0  0  0  0  0  0  0  0  0  0
    0.0000    0.0000    0.0000 H   0  0  0  0  0  0  0  0  0  0  0  0
    0.0000    0.0000    0.0000 H   0  0  0  0  0  0  0  0  0  0  0  0
    0.0000    0.0000    0.0000 H   0  0  0  0  0  0  0  0  0  0  0  0
    0.0000    0.0000    0.0000 H   0  0  0  0  0  0  0  0  0  0  0  0
    0.0000    0.0000    0.0000 H   0  0  0  0  0  0  0  0  0  0  0  0
    0.0000    0.0000    0.0000 H   0  0  0  0  0  0  0  0  0  0  0  0
    0.0000    0.0000    0.0000 H   0  0  0  0  0  0  0  0  0  0  0  0
    0.0000    0.0000    0.0000 H   0  0  0  0  0  0  0  0  0  0  0  0
    0.0000    0.0000    0.0000 H   0  0  0  0  0  0  0  0  0  0  0  0
    0.0000    0.0000    0.0000 H   0  0  0  0  0  0  0  0  0  0  0  0
    0.0000    0.0000    0.0000 H   0  0  0  0  0  0  0  0  0  0  0  0
   12.4201    5.2699    9.0689 C   0  0  0  0  0  0  0  0  0  0  0  0
   11.5792    4.5190   10.0550 C   0  0  0  0  0  0  0  0  0  0  0  0
   13.0860    4.3972    8.0538 C   0  0  0  0  0  0  0  0  0  0  0  0
   11.7694    6.4849    8.5117 C   0  0  0  0  0  0  0  0  0  0  0  0
   10.8998    3.8026    9.5669 H   0  0  0  0  0  0  0  0  0  0  0  0
   11.0394    5.2813   10.6715 H   0  0  0  0  0  0  0  0  0  0  0  0
   12.2064    3.9523   10.7960 H   0  0  0  0  0  0  0  0  0  0  0  0
   13.5687    3.5562    8.5982 H   0  0  0  0  0  0  0  0  0  0  0  0
   13.9228    4.9679    7.5792 H   0  0  0  0  0  0  0  0  0  0  0  0
   12.3442    4.0626    7.3075 H   0  0  0  0  0  0  0  0  0  0  0  0
   12.2134    6.7790    7.5422 H   0  0  0  0  0  0  0  0  0  0  0  0
   11.7939    7.3635    9.2084 H   0  0  0  0  0  0  0  0  0  0  0  0
   10.6896    6.2728    8.3448 H   0  0  0  0  0  0  0  0  0  0  0  0
  1  3  2  0
  1  4  1  0
  1  5  1  0
  2  4  1  0
  2  6  1  0
  4  9  1  0
  4 15  1  0
  5  6  1  0
  5  8  1  0
  6  7  2  3
  9 10  2  0
  9 14  1  0
 10 11  1  0
 11 12  2  0
 12 13  1  0
 13 14  2  0
 15 16  2  0
 15 20  1  0
 16 17  1  0
 17 18  2  0
 18 19  1  0
 19 20  2  0
  2 21  1  0
  7 22  1  0
  8 23  1  0
  8 24  1  0
  8 25  1  0
 10 26  1  0
 11 27  1  0
 12 28  1  0
 13 29  1  0
 14 30  1  0
 16 31  1  0
 17 32  1  0
 19 33  1  0
 20 34  1  0
 35 36  1  0
 35 37  1  0
 35 38  1  0
 36 39  1  0
 36 40  1  0
 36 41  1  0
 37 42  1  0
 37 43  1  0
 37 44  1  0
 38 45  1  0
 38 46  1  0
 38 47  1  0
 18 35  1  0
M  END
>  <attachment_point>  (23) 
32

>  <score>  (23) 
<NA>

$$$$
4djw
     RDKit          3D

 49 52  0  0  0  0  0  0  0  0999 V2000
   22.4950   11.8750   22.5810 C   0  0  0  0  0  0  0  0  0  0  0  0
   22.5380    9.4930   22.4640 N   0  0  0  0  0  0  0  0  0  0  0  0
   22.3600   13.0630   22.3480 O   0  0  0  0  0  0  0  0  0  0  0  0
   22.3390   10.6680   21.5610 C   0  0  0  0  0  0  0  0  0  0  0  0
   22.7860   11.3350   23.8120 N   0  0  0  0  0  0  0  0  0  0  0  0
   22.7800    9.9140   23.7010 C   0  0  0  0  0  0  0  0  0  0  0  0
   22.9970    9.1110   24.7490 N   0  0  0  0  0  0  0  0  0  0  0  0
   23.0220   12.1410   25.0180 C   0  0  0  0  0  0  0  0  0  0  0  0
   20.9020   10.6270   21.0050 C   0  0  0  0  0  0  0  0  0  0  0  0
   20.2720    9.4140   20.7470 C   0  0  0  0  0  0  0  0  0  0  0  0
   18.9690    9.3760   20.2600 C   0  0  0  0  0  0  0  0  0  0  0  0
   18.2800   10.5440   20.0210 C   0  0  0  0  0  0  0  0  0  0  0  0
   18.8920   11.7530   20.2590 C   0  0  0  0  0  0  0  0  0  0  0  0
   20.1950   11.7970   20.7440 C   0  0  0  0  0  0  0  0  0  0  0  0
   23.4880   10.6920   20.5300 C   0  0  0  0  0  0  0  0  0  0  0  0
   23.2110   10.7890   19.1730 C   0  0  0  0  0  0  0  0  0  0  0  0
   24.2350   10.8650   18.2430 C   0  0  0  0  0  0  0  0  0  0  0  0
   25.5500   10.8410   18.6560 C   0  0  0  0  0  0  0  0  0  0  0  0
   25.8710   10.7460   20.0070 C   0  0  0  0  0  0  0  0  0  0  0  0
   24.8260   10.6610   20.9430 C   0  0  0  0  0  0  0  0  0  0  0  0
    0.0000    0.0000    0.0000 H   0  0  0  0  0  0  0  0  0  0  0  0
    0.0000    0.0000    0.0000 H   0  0  0  0  0  0  0  0  0  0  0  0
    0.0000    0.0000    0.0000 H   0  0  0  0  0  0  0  0  0  0  0  0
    0.0000    0.0000    0.0000 H   0  0  0  0  0  0  0  0  0  0  0  0
    0.0000    0.0000    0.0000 H   0  0  0  0  0  0  0  0  0  0  0  0
    0.0000    0.0000    0.0000 H   0  0  0  0  0  0  0  0  0  0  0  0
    0.0000    0.0000    0.0000 H   0  0  0  0  0  0  0  0  0  0  0  0
    0.0000    0.0000    0.0000 H   0  0  0  0  0  0  0  0  0  0  0  0
    0.0000    0.0000    0.0000 H   0  0  0  0  0  0  0  0  0  0  0  0
    0.0000    0.0000    0.0000 H   0  0  0  0  0  0  0  0  0  0  0  0
    0.0000    0.0000    0.0000 H   0  0  0  0  0  0  0  0  0  0  0  0
    0.0000    0.0000    0.0000 H   0  0  0  0  0  0  0  0  0  0  0  0
    0.0000    0.0000    0.0000 H   0  0  0  0  0  0  0  0  0  0  0  0
    0.0000    0.0000    0.0000 H   0  0  0  0  0  0  0  0  0  0  0  0
   12.4516    5.2833    9.0918 C   0  0  0  0  0  0  0  0  0  0  0  0
   11.9181    4.0158    9.1865 C   0  0  0  0  0  0  0  0  0  0  0  0
   10.8514    3.6496    8.3675 C   0  0  0  0  0  0  0  0  0  0  0  0
   10.3061    4.5250    7.4545 C   0  0  0  0  0  0  0  0  0  0  0  0
    9.2372    4.1257    6.6486 O   0  0  0  0  0  0  0  0  0  0  0  0
    8.6726    2.8537    6.7166 C   0  0  0  0  0  0  0  0  0  0  0  0
   10.8316    5.7904    7.3532 C   0  0  0  0  0  0  0  0  0  0  0  0
   11.8924    6.1476    8.1711 C   0  0  0  0  0  0  0  0  0  0  0  0
   12.3187    3.3004    9.8910 H   0  0  0  0  0  0  0  0  0  0  0  0
   10.4433    2.6545    8.4518 H   0  0  0  0  0  0  0  0  0  0  0  0
    9.3015    2.0457    6.3090 H   0  0  0  0  0  0  0  0  0  0  0  0
    8.5091    2.6088    7.7976 H   0  0  0  0  0  0  0  0  0  0  0  0
    7.6889    2.8750    6.2107 H   0  0  0  0  0  0  0  0  0  0  0  0
   10.3889    6.4578    6.6320 H   0  0  0  0  0  0  0  0  0  0  0  0
   12.2903    7.1381    8.0794 H   0  0  0  0  0  0  0  0  0  0  0  0
  1  3  2  0
  1  4  1  0
  1  5  1  0
  2  4  1  0
  2  6  1  0
  4  9  1  0
  4 15  1  0
  5  6  1  0
  5  8  1  0
  6  7  2  3
  9 10  2  0
  9 14  1  0
 10 11  1  0
 11 12  2  0
 12 13  1  0
 13 14  2  0
 15 16  2  0
 15 20  1  0
 16 17  1  0
 17 18  2  0
 18 19  1  0
 19 20  2  0
  2 21  1  0
  7 22  1  0
  8 23  1  0
  8 24  1  0
  8 25  1  0
 10 26  1  0
 11 27  1  0
 12 28  1  0
 13 29  1  0
 14 30  1  0
 16 31  1  0
 17 32  1  0
 19 33  1  0
 20 34  1  0
 35 36  2  0
 36 37  1  0
 37 38  2  0
 38 39  1  0
 39 40  1  0
 38 41  1  0
 41 42  2  0
 42 35  1  0
 36 43  1  0
 37 44  1  0
 40 45  1  0
 40 46  1  0
 40 47  1  0
 41 48  1  0
 42 49  1  0
 18 35  1  0
M  END
>  <attachment_point>  (24) 
32

>  <score>  (24) 
<NA>

$$$$
4djw
     RDKit          3D

 45 48  0  0  0  0  0  0  0  0999 V2000
   22.4950   11.8750   22.5810 C   0  0  0  0  0  0  0  0  0  0  0  0
   22.5380    9.4930   22.4640 N   0  0  0  0  0  0  0  0  0  0  0  0
   22.3600   13.0630   22.3480 O   0  0  0  0  0  0  0  0  0  0  0  0
   22.3390   10.6680   21.5610 C   0  0  0  0  0  0  0  0  0  0  0  0
   22.7860   11.3350   23.8120 N   0  0  0  0  0  0  0  0  0  0  0  0
   22.7800    9.9140   23.7010 C   0  0  0  0  0  0  0  0  0  0  0  0
   22.9970    9.1110   24.7490 N   0  0  0  0  0  0  0  0  0  0  0  0
   23.0220   12.1410   25.0180 C   0  0  0  0  0  0  0  0  0  0  0  0
   20.9020   10.6270   21.0050 C   0  0  0  0  0  0  0  0  0  0  0  0
   20.2720    9.4140   20.7470 C   0  0  0  0  0  0  0  0  0  0  0  0
   18.9690    9.3760   20.2600 C   0  0  0  0  0  0  0  0  0  0  0  0
   18.2800   10.5440   20.0210 C   0  0  0  0  0  0  0  0  0  0  0  0
   18.8920   11.7530   20.2590 C   0  0  0  0  0  0  0  0  0  0  0  0
   20.1950   11.7970   20.7440 C   0  0  0  0  0  0  0  0  0  0  0  0
   23.4880   10.6920   20.5300 C   0  0  0  0  0  0  0  0  0  0  0  0
   23.2110   10.7890   19.1730 C   0  0  0  0  0  0  0  0  0  0  0  0
   24.2350   10.8650   18.2430 C   0  0  0  0  0  0  0  0  0  0  0  0
   25.5500   10.8410   18.6560 C   0  0  0  0  0  0  0  0  0  0  0  0
   25.8710   10.7460   20.0070 C   0  0  0  0  0  0  0  0  0  0  0  0
   24.8260   10.6610   20.9430 C   0  0  0  0  0  0  0  0  0  0  0  0
    0.0000    0.0000    0.0000 H   0  0  0  0  0  0  0  0  0  0  0  0
    0.0000    0.0000    0.0000 H   0  0  0  0  0  0  0  0  0  0  0  0
    0.0000    0.0000    0.0000 H   0  0  0  0  0  0  0  0  0  0  0  0
    0.0000    0.0000    0.0000 H   0  0  0  0  0  0  0  0  0  0  0  0
    0.0000    0.0000    0.0000 H   0  0  0  0  0  0  0  0  0  0  0  0
    0.0000    0.0000    0.0000 H   0  0  0  0  0  0  0  0  0  0  0  0
    0.0000    0.0000    0.0000 H   0  0  0  0  0  0  0  0  0  0  0  0
    0.0000    0.0000    0.0000 H   0  0  0  0  0  0  0  0  0  0  0  0
    0.0000    0.0000    0.0000 H   0  0  0  0  0  0  0  0  0  0  0  0
    0.0000    0.0000    0.0000 H   0  0  0  0  0  0  0  0  0  0  0  0
    0.0000    0.0000    0.0000 H   0  0  0  0  0  0  0  0  0  0  0  0
    0.0000    0.0000    0.0000 H   0  0  0  0  0  0  0  0  0  0  0  0
    0.0000    0.0000    0.0000 H   0  0  0  0  0  0  0  0  0  0  0  0
    0.0000    0.0000    0.0000 H   0  0  0  0  0  0  0  0  0  0  0  0
   12.4349    5.2762    9.0797 C   0  0  0  0  0  0  0  0  0  0  0  0
   11.4936    4.4154    9.5998 C   0  0  0  0  0  0  0  0  0  0  0  0
   10.4472    3.9945    8.7754 C   0  0  0  0  0  0  0  0  0  0  0  0
   10.3725    4.4390    7.4746 C   0  0  0  0  0  0  0  0  0  0  0  0
    9.3320    4.0052    6.6947 F   0  0  0  0  0  0  0  0  0  0  0  0
   11.3228    5.2974    6.9772 C   0  0  0  0  0  0  0  0  0  0  0  0
   12.3614    5.7223    7.7769 C   0  0  0  0  0  0  0  0  0  0  0  0
   11.5706    4.0780   10.6246 H   0  0  0  0  0  0  0  0  0  0  0  0
    9.7072    3.3224    9.1724 H   0  0  0  0  0  0  0  0  0  0  0  0
   11.2169    5.6152    5.9504 H   0  0  0  0  0  0  0  0  0  0  0  0
   13.1137    6.3990    7.3905 H   0  0  0  0  0  0  0  0  0  0  0  0
  1  3  2  0
  1  4  1  0
  1  5  1  0
  2  4  1  0
  2  6  1  0
  4  9  1  0
  4 15  1  0
  5  6  1  0
  5  8  1  0
  6  7  2  3
  9 10  2  0
  9 14  1  0
 10 11  1  0
 11 12  2  0
 12 13  1  0
 13 14  2  0
 15 16  2  0
 15 20  1  0
 16 17  1  0
 17 18  2  0
 18 19  1  0
 19 20  2  0
  2 21  1  0
  7 22  1  0
  8 23  1  0
  8 24  1  0
  8 25  1  0
 10 26  1  0
 11 27  1  0
 12 28  1  0
 13 29  1  0
 14 30  1  0
 16 31  1  0
 17 32  1  0
 19 33  1  0
 20 34  1  0
 35 36  2  0
 36 37  1  0
 37 38  2  0
 38 39  1  0
 38 40  1  0
 40 41  2  0
 41 35  1  0
 36 42  1  0
 37 43  1  0
 40 44  1  0
 41 45  1  0
 18 35  1  0
M  END
>  <attachment_point>  (25) 
32

>  <score>  (25) 
<NA>

$$$$
4djw
     RDKit          3D

 51 54  0  0  0  0  0  0  0  0999 V2000
   22.4950   11.8750   22.5810 C   0  0  0  0  0  0  0  0  0  0  0  0
   22.5380    9.4930   22.4640 N   0  0  0  0  0  0  0  0  0  0  0  0
   22.3600   13.0630   22.3480 O   0  0  0  0  0  0  0  0  0  0  0  0
   22.3390   10.6680   21.5610 C   0  0  0  0  0  0  0  0  0  0  0  0
   22.7860   11.3350   23.8120 N   0  0  0  0  0  0  0  0  0  0  0  0
   22.7800    9.9140   23.7010 C   0  0  0  0  0  0  0  0  0  0  0  0
   22.9970    9.1110   24.7490 N   0  0  0  0  0  0  0  0  0  0  0  0
   23.0220   12.1410   25.0180 C   0  0  0  0  0  0  0  0  0  0  0  0
   20.9020   10.6270   21.0050 C   0  0  0  0  0  0  0  0  0  0  0  0
   20.2720    9.4140   20.7470 C   0  0  0  0  0  0  0  0  0  0  0  0
   18.9690    9.3760   20.2600 C   0  0  0  0  0  0  0  0  0  0  0  0
   18.2800   10.5440   20.0210 C   0  0  0  0  0  0  0  0  0  0  0  0
   18.8920   11.7530   20.2590 C   0  0  0  0  0  0  0  0  0  0  0  0
   20.1950   11.7970   20.7440 C   0  0  0  0  0  0  0  0  0  0  0  0
   23.4880   10.6920   20.5300 C   0  0  0  0  0  0  0  0  0  0  0  0
   23.2110   10.7890   19.1730 C   0  0  0  0  0  0  0  0  0  0  0  0
   24.2350   10.8650   18.2430 C   0  0  0  0  0  0  0  0  0  0  0  0
   25.5500   10.8410   18.6560 C   0  0  0  0  0  0  0  0  0  0  0  0
   25.8710   10.7460   20.0070 C   0  0  0  0  0  0  0  0  0  0  0  0
   24.8260   10.6610   20.9430 C   0  0  0  0  0  0  0  0  0  0  0  0
    0.0000    0.0000    0.0000 H   0  0  0  0  0  0  0  0  0  0  0  0
    0.0000    0.0000    0.0000 H   0  0  0  0  0  0  0  0  0  0  0  0
    0.0000    0.0000    0.0000 H   0  0  0  0  0  0  0  0  0  0  0  0
    0.0000    0.0000    0.0000 H   0  0  0  0  0  0  0  0  0  0  0  0
    0.0000    0.0000    0.0000 H   0  0  0  0  0  0  0  0  0  0  0  0
    0.0000    0.0000    0.0000 H   0  0  0  0  0  0  0  0  0  0  0  0
    0.0000    0.0000    0.0000 H   0  0  0  0  0  0  0  0  0  0  0  0
    0.0000    0.0000    0.0000 H   0  0  0  0  0  0  0  0  0  0  0  0
    0.0000    0.0000    0.0000 H   0  0  0  0  0  0  0  0  0  0  0  0
    0.0000    0.0000    0.0000 H   0  0  0  0  0  0  0  0  0  0  0  0
    0.0000    0.0000    0.0000 H   0  0  0  0  0  0  0  0  0  0  0  0
    0.0000    0.0000    0.0000 H   0  0  0  0  0  0  0  0  0  0  0  0
    0.0000    0.0000    0.0000 H   0  0  0  0  0  0  0  0  0  0  0  0
    0.0000    0.0000    0.0000 H   0  0  0  0  0  0  0  0  0  0  0  0
   12.4397    5.2782    9.0832 C   0  0  0  0  0  0  0  0  0  0  0  0
   11.6285    4.4131   10.0289 C   0  0  0  0  0  0  0  0  0  0  0  0
   12.5618    3.5324   10.7769 C   0  0  0  0  0  0  0  0  0  0  0  0
   13.5917    2.8443    9.9696 C   0  0  0  0  0  0  0  0  0  0  0  0
   14.0347    3.5150    8.7341 C   0  0  0  0  0  0  0  0  0  0  0  0
   12.9583    4.3082    8.0288 C   0  0  0  0  0  0  0  0  0  0  0  0
   11.8884    6.1155    8.6673 H   0  0  0  0  0  0  0  0  0  0  0  0
   10.9177    3.8283    9.4138 H   0  0  0  0  0  0  0  0  0  0  0  0
   11.1031    5.0691   10.7319 H   0  0  0  0  0  0  0  0  0  0  0  0
   13.0258    4.1287   11.6163 H   0  0  0  0  0  0  0  0  0  0  0  0
   11.9407    2.7357   11.2827 H   0  0  0  0  0  0  0  0  0  0  0  0
   13.3031    1.7836    9.7074 H   0  0  0  0  0  0  0  0  0  0  0  0
   14.4966    2.7094   10.6343 H   0  0  0  0  0  0  0  0  0  0  0  0
   14.4452    2.7636    8.0230 H   0  0  0  0  0  0  0  0  0  0  0  0
   14.8393    4.2615    8.9961 H   0  0  0  0  0  0  0  0  0  0  0  0
   12.1413    3.5803    7.7733 H   0  0  0  0  0  0  0  0  0  0  0  0
   13.3541    4.7962    7.1476 H   0  0  0  0  0  0  0  0  0  0  0  0
  1  3  2  0
  1  4  1  0
  1  5  1  0
  2  4  1  0
  2  6  1  0
  4  9  1  0
  4 15  1  0
  5  6  1  0
  5  8  1  0
  6  7  2  3
  9 10  2  0
  9 14  1  0
 10 11  1  0
 11 12  2  0
 12 13  1  0
 13 14  2  0
 15 16  2  0
 15 20  1  0
 16 17  1  0
 17 18  2  0
 18 19  1  0
 19 20  2  0
  2 21  1  0
  7 22  1  0
  8 23  1  0
  8 24  1  0
  8 25  1  0
 10 26  1  0
 11 27  1  0
 12 28  1  0
 13 29  1  0
 14 30  1  0
 16 31  1  0
 17 32  1  0
 19 33  1  0
 20 34  1  0
 35 36  1  0
 36 37  1  0
 37 38  1  0
 38 39  1  0
 39 40  1  0
 40 35  1  0
 35 41  1  0
 36 42  1  0
 36 43  1  0
 37 44  1  0
 37 45  1  0
 38 46  1  0
 38 47  1  0
 39 48  1  0
 39 49  1  0
 40 50  1  0
 40 51  1  0
 18 35  1  0
M  END
>  <attachment_point>  (26) 
32

>  <score>  (26) 
<NA>

$$$$
4djw
     RDKit          3D

 41 43  0  0  0  0  0  0  0  0999 V2000
   22.4950   11.8750   22.5810 C   0  0  0  0  0  0  0  0  0  0  0  0
   22.5380    9.4930   22.4640 N   0  0  0  0  0  0  0  0  0  0  0  0
   22.3600   13.0630   22.3480 O   0  0  0  0  0  0  0  0  0  0  0  0
   22.3390   10.6680   21.5610 C   0  0  0  0  0  0  0  0  0  0  0  0
   22.7860   11.3350   23.8120 N   0  0  0  0  0  0  0  0  0  0  0  0
   22.7800    9.9140   23.7010 C   0  0  0  0  0  0  0  0  0  0  0  0
   22.9970    9.1110   24.7490 N   0  0  0  0  0  0  0  0  0  0  0  0
   23.0220   12.1410   25.0180 C   0  0  0  0  0  0  0  0  0  0  0  0
   20.9020   10.6270   21.0050 C   0  0  0  0  0  0  0  0  0  0  0  0
   20.2720    9.4140   20.7470 C   0  0  0  0  0  0  0  0  0  0  0  0
   18.9690    9.3760   20.2600 C   0  0  0  0  0  0  0  0  0  0  0  0
   18.2800   10.5440   20.0210 C   0  0  0  0  0  0  0  0  0  0  0  0
   18.8920   11.7530   20.2590 C   0  0  0  0  0  0  0  0  0  0  0  0
   20.1950   11.7970   20.7440 C   0  0  0  0  0  0  0  0  0  0  0  0
   23.4880   10.6920   20.5300 C   0  0  0  0  0  0  0  0  0  0  0  0
   23.2110   10.7890   19.1730 C   0  0  0  0  0  0  0  0  0  0  0  0
   24.2350   10.8650   18.2430 C   0  0  0  0  0  0  0  0  0  0  0  0
   25.5500   10.8410   18.6560 C   0  0  0  0  0  0  0  0  0  0  0  0
   25.8710   10.7460   20.0070 C   0  0  0  0  0  0  0  0  0  0  0  0
   24.8260   10.6610   20.9430 C   0  0  0  0  0  0  0  0  0  0  0  0
    0.0000    0.0000    0.0000 H   0  0  0  0  0  0  0  0  0  0  0  0
    0.0000    0.0000    0.0000 H   0  0  0  0  0  0  0  0  0  0  0  0
    0.0000    0.0000    0.0000 H   0  0  0  0  0  0  0  0  0  0  0  0
    0.0000    0.0000    0.0000 H   0  0  0  0  0  0  0  0  0  0  0  0
    0.0000    0.0000    0.0000 H   0  0  0  0  0  0  0  0  0  0  0  0
    0.0000    0.0000    0.0000 H   0  0  0  0  0  0  0  0  0  0  0  0
    0.0000    0.0000    0.0000 H   0  0  0  0  0  0  0  0  0  0  0  0
    0.0000    0.0000    0.0000 H   0  0  0  0  0  0  0  0  0  0  0  0
    0.0000    0.0000    0.0000 H   0  0  0  0  0  0  0  0  0  0  0  0
    0.0000    0.0000    0.0000 H   0  0  0  0  0  0  0  0  0  0  0  0
    0.0000    0.0000    0.0000 H   0  0  0  0  0  0  0  0  0  0  0  0
    0.0000    0.0000    0.0000 H   0  0  0  0  0  0  0  0  0  0  0  0
    0.0000    0.0000    0.0000 H   0  0  0  0  0  0  0  0  0  0  0  0
    0.0000    0.0000    0.0000 H   0  0  0  0  0  0  0  0  0  0  0  0
   12.4138    5.2673    9.0643 C   0  0  0  0  0  0  0  0  0  0  0  0
   11.4692    4.6773   10.0294 C   0  0  0  0  0  0  0  0  0  0  0  0
   11.6061    3.4527   10.2920 O   0  0  0  0  0  0  0  0  0  0  0  0
   10.4640    5.4213   10.6347 O   0  0  0  0  0  0  0  0  0  0  0  0
   12.0126    6.1620    8.5540 H   0  0  0  0  0  0  0  0  0  0  0  0
   12.8301    4.5381    8.3590 H   0  0  0  0  0  0  0  0  0  0  0  0
   10.0587    5.0841   11.5044 H   0  0  0  0  0  0  0  0  0  0  0  0
  1  3  2  0
  1  4  1  0
  1  5  1  0
  2  4  1  0
  2  6  1  0
  4  9  1  0
  4 15  1  0
  5  6  1  0
  5  8  1  0
  6  7  2  3
  9 10  2  0
  9 14  1  0
 10 11  1  0
 11 12  2  0
 12 13  1  0
 13 14  2  0
 15 16  2  0
 15 20  1  0
 16 17  1  0
 17 18  2  0
 18 19  1  0
 19 20  2  0
  2 21  1  0
  7 22  1  0
  8 23  1  0
  8 24  1  0
  8 25  1  0
 10 26  1  0
 11 27  1  0
 12 28  1  0
 13 29  1  0
 14 30  1  0
 16 31  1  0
 17 32  1  0
 19 33  1  0
 20 34  1  0
 35 36  1  0
 36 37  2  0
 36 38  1  0
 35 39  1  0
 35 40  1  0
 38 41  1  0
 18 35  1  0
M  END
>  <attachment_point>  (27) 
32

>  <score>  (27) 
<NA>

$$$$
4djw
     RDKit          3D

 44 47  0  0  0  0  0  0  0  0999 V2000
   22.4950   11.8750   22.5810 C   0  0  0  0  0  0  0  0  0  0  0  0
   22.5380    9.4930   22.4640 N   0  0  0  0  0  0  0  0  0  0  0  0
   22.3600   13.0630   22.3480 O   0  0  0  0  0  0  0  0  0  0  0  0
   22.3390   10.6680   21.5610 C   0  0  0  0  0  0  0  0  0  0  0  0
   22.7860   11.3350   23.8120 N   0  0  0  0  0  0  0  0  0  0  0  0
   22.7800    9.9140   23.7010 C   0  0  0  0  0  0  0  0  0  0  0  0
   22.9970    9.1110   24.7490 N   0  0  0  0  0  0  0  0  0  0  0  0
   23.0220   12.1410   25.0180 C   0  0  0  0  0  0  0  0  0  0  0  0
   20.9020   10.6270   21.0050 C   0  0  0  0  0  0  0  0  0  0  0  0
   20.2720    9.4140   20.7470 C   0  0  0  0  0  0  0  0  0  0  0  0
   18.9690    9.3760   20.2600 C   0  0  0  0  0  0  0  0  0  0  0  0
   18.2800   10.5440   20.0210 C   0  0  0  0  0  0  0  0  0  0  0  0
   18.8920   11.7530   20.2590 C   0  0  0  0  0  0  0  0  0  0  0  0
   20.1950   11.7970   20.7440 C   0  0  0  0  0  0  0  0  0  0  0  0
   23.4880   10.6920   20.5300 C   0  0  0  0  0  0  0  0  0  0  0  0
   23.2110   10.7890   19.1730 C   0  0  0  0  0  0  0  0  0  0  0  0
   24.2350   10.8650   18.2430 C   0  0  0  0  0  0  0  0  0  0  0  0
   25.5500   10.8410   18.6560 C   0  0  0  0  0  0  0  0  0  0  0  0
   25.8710   10.7460   20.0070 C   0  0  0  0  0  0  0  0  0  0  0  0
   24.8260   10.6610   20.9430 C   0  0  0  0  0  0  0  0  0  0  0  0
    0.0000    0.0000    0.0000 H   0  0  0  0  0  0  0  0  0  0  0  0
    0.0000    0.0000    0.0000 H   0  0  0  0  0  0  0  0  0  0  0  0
    0.0000    0.0000    0.0000 H   0  0  0  0  0  0  0  0  0  0  0  0
    0.0000    0.0000    0.0000 H   0  0  0  0  0  0  0  0  0  0  0  0
    0.0000    0.0000    0.0000 H   0  0  0  0  0  0  0  0  0  0  0  0
    0.0000    0.0000    0.0000 H   0  0  0  0  0  0  0  0  0  0  0  0
    0.0000    0.0000    0.0000 H   0  0  0  0  0  0  0  0  0  0  0  0
    0.0000    0.0000    0.0000 H   0  0  0  0  0  0  0  0  0  0  0  0
    0.0000    0.0000    0.0000 H   0  0  0  0  0  0  0  0  0  0  0  0
    0.0000    0.0000    0.0000 H   0  0  0  0  0  0  0  0  0  0  0  0
    0.0000    0.0000    0.0000 H   0  0  0  0  0  0  0  0  0  0  0  0
    0.0000    0.0000    0.0000 H   0  0  0  0  0  0  0  0  0  0  0  0
    0.0000    0.0000    0.0000 H   0  0  0  0  0  0  0  0  0  0  0  0
    0.0000    0.0000    0.0000 H   0  0  0  0  0  0  0  0  0  0  0  0
   12.4456    5.2807    9.0875 C   0  0  0  0  0  0  0  0  0  0  0  0
   12.6452    4.1440    8.3269 C   0  0  0  0  0  0  0  0  0  0  0  0
   11.6328    3.6400    7.5326 C   0  0  0  0  0  0  0  0  0  0  0  0
   10.4141    4.2975    7.5144 C   0  0  0  0  0  0  0  0  0  0  0  0
   10.2298    5.4293    8.2777 C   0  0  0  0  0  0  0  0  0  0  0  0
   11.2533    5.8627    9.0243 N   0  0  0  0  0  0  0  0  0  0  0  0
   13.6165    3.6238    8.3443 H   0  0  0  0  0  0  0  0  0  0  0  0
   11.7632    2.7579    6.9321 H   0  0  0  0  0  0  0  0  0  0  0  0
    9.5951    3.9142    6.8898 H   0  0  0  0  0  0  0  0  0  0  0  0
    9.2659    5.9059    8.2310 H   0  0  0  0  0  0  0  0  0  0  0  0
  1  3  2  0
  1  4  1  0
  1  5  1  0
  2  4  1  0
  2  6  1  0
  4  9  1  0
  4 15  1  0
  5  6  1  0
  5  8  1  0
  6  7  2  3
  9 10  2  0
  9 14  1  0
 10 11  1  0
 11 12  2  0
 12 13  1  0
 13 14  2  0
 15 16  2  0
 15 20  1  0
 16 17  1  0
 17 18  2  0
 18 19  1  0
 19 20  2  0
  2 21  1  0
  7 22  1  0
  8 23  1  0
  8 24  1  0
  8 25  1  0
 10 26  1  0
 11 27  1  0
 12 28  1  0
 13 29  1  0
 14 30  1  0
 16 31  1  0
 17 32  1  0
 19 33  1  0
 20 34  1  0
 35 36  2  0
 36 37  1  0
 37 38  2  0
 38 39  1  0
 39 40  2  0
 40 35  1  0
 36 41  1  0
 37 42  1  0
 38 43  1  0
 39 44  1  0
 18 35  1  0
M  END
>  <attachment_point>  (28) 
32

>  <score>  (28) 
<NA>

$$$$
4djw
     RDKit          3D

 41 43  0  0  0  0  0  0  0  0999 V2000
   22.4950   11.8750   22.5810 C   0  0  0  0  0  0  0  0  0  0  0  0
   22.5380    9.4930   22.4640 N   0  0  0  0  0  0  0  0  0  0  0  0
   22.3600   13.0630   22.3480 O   0  0  0  0  0  0  0  0  0  0  0  0
   22.3390   10.6680   21.5610 C   0  0  0  0  0  0  0  0  0  0  0  0
   22.7860   11.3350   23.8120 N   0  0  0  0  0  0  0  0  0  0  0  0
   22.7800    9.9140   23.7010 C   0  0  0  0  0  0  0  0  0  0  0  0
   22.9970    9.1110   24.7490 N   0  0  0  0  0  0  0  0  0  0  0  0
   23.0220   12.1410   25.0180 C   0  0  0  0  0  0  0  0  0  0  0  0
   20.9020   10.6270   21.0050 C   0  0  0  0  0  0  0  0  0  0  0  0
   20.2720    9.4140   20.7470 C   0  0  0  0  0  0  0  0  0  0  0  0
   18.9690    9.3760   20.2600 C   0  0  0  0  0  0  0  0  0  0  0  0
   18.2800   10.5440   20.0210 C   0  0  0  0  0  0  0  0  0  0  0  0
   18.8920   11.7530   20.2590 C   0  0  0  0  0  0  0  0  0  0  0  0
   20.1950   11.7970   20.7440 C   0  0  0  0  0  0  0  0  0  0  0  0
   23.4880   10.6920   20.5300 C   0  0  0  0  0  0  0  0  0  0  0  0
   23.2110   10.7890   19.1730 C   0  0  0  0  0  0  0  0  0  0  0  0
   24.2350   10.8650   18.2430 C   0  0  0  0  0  0  0  0  0  0  0  0
   25.5500   10.8410   18.6560 C   0  0  0  0  0  0  0  0  0  0  0  0
   25.8710   10.7460   20.0070 C   0  0  0  0  0  0  0  0  0  0  0  0
   24.8260   10.6610   20.9430 C   0  0  0  0  0  0  0  0  0  0  0  0
    0.0000    0.0000    0.0000 H   0  0  0  0  0  0  0  0  0  0  0  0
    0.0000    0.0000    0.0000 H   0  0  0  0  0  0  0  0  0  0  0  0
    0.0000    0.0000    0.0000 H   0  0  0  0  0  0  0  0  0  0  0  0
    0.0000    0.0000    0.0000 H   0  0  0  0  0  0  0  0  0  0  0  0
    0.0000    0.0000    0.0000 H   0  0  0  0  0  0  0  0  0  0  0  0
    0.0000    0.0000    0.0000 H   0  0  0  0  0  0  0  0  0  0  0  0
    0.0000    0.0000    0.0000 H   0  0  0  0  0  0  0  0  0  0  0  0
    0.0000    0.0000    0.0000 H   0  0  0  0  0  0  0  0  0  0  0  0
    0.0000    0.0000    0.0000 H   0  0  0  0  0  0  0  0  0  0  0  0
    0.0000    0.0000    0.0000 H   0  0  0  0  0  0  0  0  0  0  0  0
    0.0000    0.0000    0.0000 H   0  0  0  0  0  0  0  0  0  0  0  0
    0.0000    0.0000    0.0000 H   0  0  0  0  0  0  0  0  0  0  0  0
    0.0000    0.0000    0.0000 H   0  0  0  0  0  0  0  0  0  0  0  0
    0.0000    0.0000    0.0000 H   0  0  0  0  0  0  0  0  0  0  0  0
   12.3800    5.2529    9.0396 C   0  0  0  0  0  0  0  0  0  0  0  0
   12.6480    4.6805    8.0198 O   0  0  0  0  0  0  0  0  0  0  0  0
   11.1707    5.5183    9.5358 O   0  0  0  0  0  0  0  0  0  0  0  0
    9.9938    5.1227    8.8602 C   0  0  0  0  0  0  0  0  0  0  0  0
    9.4696    6.0528    8.5596 H   0  0  0  0  0  0  0  0  0  0  0  0
    9.2819    4.5847    9.5286 H   0  0  0  0  0  0  0  0  0  0  0  0
   10.1700    4.5209    7.9693 H   0  0  0  0  0  0  0  0  0  0  0  0
  1  3  2  0
  1  4  1  0
  1  5  1  0
  2  4  1  0
  2  6  1  0
  4  9  1  0
  4 15  1  0
  5  6  1  0
  5  8  1  0
  6  7  2  3
  9 10  2  0
  9 14  1  0
 10 11  1  0
 11 12  2  0
 12 13  1  0
 13 14  2  0
 15 16  2  0
 15 20  1  0
 16 17  1  0
 17 18  2  0
 18 19  1  0
 19 20  2  0
  2 21  1  0
  7 22  1  0
  8 23  1  0
  8 24  1  0
  8 25  1  0
 10 26  1  0
 11 27  1  0
 12 28  1  0
 13 29  1  0
 14 30  1  0
 16 31  1  0
 17 32  1  0
 19 33  1  0
 20 34  1  0
 35 36  2  0
 35 37  1  0
 37 38  1  0
 38 39  1  0
 38 40  1  0
 38 41  1  0
 18 35  1  0
M  END
>  <attachment_point>  (29) 
32

>  <score>  (29) 
<NA>

$$$$
4djw
     RDKit          3D

 47 49  0  0  0  0  0  0  0  0999 V2000
   22.4950   11.8750   22.5810 C   0  0  0  0  0  0  0  0  0  0  0  0
   22.5380    9.4930   22.4640 N   0  0  0  0  0  0  0  0  0  0  0  0
   22.3600   13.0630   22.3480 O   0  0  0  0  0  0  0  0  0  0  0  0
   22.3390   10.6680   21.5610 C   0  0  0  0  0  0  0  0  0  0  0  0
   22.7860   11.3350   23.8120 N   0  0  0  0  0  0  0  0  0  0  0  0
   22.7800    9.9140   23.7010 C   0  0  0  0  0  0  0  0  0  0  0  0
   22.9970    9.1110   24.7490 N   0  0  0  0  0  0  0  0  0  0  0  0
   23.0220   12.1410   25.0180 C   0  0  0  0  0  0  0  0  0  0  0  0
   20.9020   10.6270   21.0050 C   0  0  0  0  0  0  0  0  0  0  0  0
   20.2720    9.4140   20.7470 C   0  0  0  0  0  0  0  0  0  0  0  0
   18.9690    9.3760   20.2600 C   0  0  0  0  0  0  0  0  0  0  0  0
   18.2800   10.5440   20.0210 C   0  0  0  0  0  0  0  0  0  0  0  0
   18.8920   11.7530   20.2590 C   0  0  0  0  0  0  0  0  0  0  0  0
   20.1950   11.7970   20.7440 C   0  0  0  0  0  0  0  0  0  0  0  0
   23.4880   10.6920   20.5300 C   0  0  0  0  0  0  0  0  0  0  0  0
   23.2110   10.7890   19.1730 C   0  0  0  0  0  0  0  0  0  0  0  0
   24.2350   10.8650   18.2430 C   0  0  0  0  0  0  0  0  0  0  0  0
   25.5500   10.8410   18.6560 C   0  0  0  0  0  0  0  0  0  0  0  0
   25.8710   10.7460   20.0070 C   0  0  0  0  0  0  0  0  0  0  0  0
   24.8260   10.6610   20.9430 C   0  0  0  0  0  0  0  0  0  0  0  0
    0.0000    0.0000    0.0000 H   0  0  0  0  0  0  0  0  0  0  0  0
    0.0000    0.0000    0.0000 H   0  0  0  0  0  0  0  0  0  0  0  0
    0.0000    0.0000    0.0000 H   0  0  0  0  0  0  0  0  0  0  0  0
    0.0000    0.0000    0.0000 H   0  0  0  0  0  0  0  0  0  0  0  0
    0.0000    0.0000    0.0000 H   0  0  0  0  0  0  0  0  0  0  0  0
    0.0000    0.0000    0.0000 H   0  0  0  0  0  0  0  0  0  0  0  0
    0.0000    0.0000    0.0000 H   0  0  0  0  0  0  0  0  0  0  0  0
    0.0000    0.0000    0.0000 H   0  0  0  0  0  0  0  0  0  0  0  0
    0.0000    0.0000    0.0000 H   0  0  0  0  0  0  0  0  0  0  0  0
    0.0000    0.0000    0.0000 H   0  0  0  0  0  0  0  0  0  0  0  0
    0.0000    0.0000    0.0000 H   0  0  0  0  0  0  0  0  0  0  0  0
    0.0000    0.0000    0.0000 H   0  0  0  0  0  0  0  0  0  0  0  0
    0.0000    0.0000    0.0000 H   0  0  0  0  0  0  0  0  0  0  0  0
    0.0000    0.0000    0.0000 H   0  0  0  0  0  0  0  0  0  0  0  0
   12.2918    5.2155    8.9752 C   0  0  0  0  0  0  0  0  0  0  0  0
   11.4149    5.8704    9.9905 C   0  0  0  0  0  0  0  0  0  0  0  0
   10.0139    5.6532    9.5752 C   0  0  0  0  0  0  0  0  0  0  0  0
    9.1084    6.3248   10.6161 C   0  0  0  0  0  0  0  0  0  0  0  0
   12.7283    5.8299    8.2222 H   0  0  0  0  0  0  0  0  0  0  0  0
   12.6832    4.2497    9.2053 H   0  0  0  0  0  0  0  0  0  0  0  0
   11.5452    5.3994   11.0093 H   0  0  0  0  0  0  0  0  0  0  0  0
   11.5874    6.9581   10.1120 H   0  0  0  0  0  0  0  0  0  0  0  0
    9.7886    6.2002    8.6175 H   0  0  0  0  0  0  0  0  0  0  0  0
    9.7043    4.5983    9.5219 H   0  0  0  0  0  0  0  0  0  0  0  0
    8.0632    6.3085   10.2547 H   0  0  0  0  0  0  0  0  0  0  0  0
    9.2087    5.7221   11.5359 H   0  0  0  0  0  0  0  0  0  0  0  0
    9.5013    7.3244   10.8123 H   0  0  0  0  0  0  0  0  0  0  0  0
  1  3  2  0
  1  4  1  0
  1  5  1  0
  2  4  1  0
  2  6  1  0
  4  9  1  0
  4 15  1  0
  5  6  1  0
  5  8  1  0
  6  7  2  3
  9 10  2  0
  9 14  1  0
 10 11  1  0
 11 12  2  0
 12 13  1  0
 13 14  2  0
 15 16  2  0
 15 20  1  0
 16 17  1  0
 17 18  2  0
 18 19  1  0
 19 20  2  0
  2 21  1  0
  7 22  1  0
  8 23  1  0
  8 24  1  0
  8 25  1  0
 10 26  1  0
 11 27  1  0
 12 28  1  0
 13 29  1  0
 14 30  1  0
 16 31  1  0
 17 32  1  0
 19 33  1  0
 20 34  1  0
 35 36  1  0
 36 37  1  0
 37 38  1  0
 35 39  1  0
 35 40  1  0
 36 41  1  0
 36 42  1  0
 37 43  1  0
 37 44  1  0
 38 45  1  0
 38 46  1  0
 38 47  1  0
 18 35  1  0
M  END
>  <attachment_point>  (30) 
32

>  <score>  (30) 
<NA>

$$$$
4djw
     RDKit          3D

 42 44  0  0  0  0  0  0  0  0999 V2000
   22.4950   11.8750   22.5810 C   0  0  0  0  0  0  0  0  0  0  0  0
   22.5380    9.4930   22.4640 N   0  0  0  0  0  0  0  0  0  0  0  0
   22.3600   13.0630   22.3480 O   0  0  0  0  0  0  0  0  0  0  0  0
   22.3390   10.6680   21.5610 C   0  0  0  0  0  0  0  0  0  0  0  0
   22.7860   11.3350   23.8120 N   0  0  0  0  0  0  0  0  0  0  0  0
   22.7800    9.9140   23.7010 C   0  0  0  0  0  0  0  0  0  0  0  0
   22.9970    9.1110   24.7490 N   0  0  0  0  0  0  0  0  0  0  0  0
   23.0220   12.1410   25.0180 C   0  0  0  0  0  0  0  0  0  0  0  0
   20.9020   10.6270   21.0050 C   0  0  0  0  0  0  0  0  0  0  0  0
   20.2720    9.4140   20.7470 C   0  0  0  0  0  0  0  0  0  0  0  0
   18.9690    9.3760   20.2600 C   0  0  0  0  0  0  0  0  0  0  0  0
   18.2800   10.5440   20.0210 C   0  0  0  0  0  0  0  0  0  0  0  0
   18.8920   11.7530   20.2590 C   0  0  0  0  0  0  0  0  0  0  0  0
   20.1950   11.7970   20.7440 C   0  0  0  0  0  0  0  0  0  0  0  0
   23.4880   10.6920   20.5300 C   0  0  0  0  0  0  0  0  0  0  0  0
   23.2110   10.7890   19.1730 C   0  0  0  0  0  0  0  0  0  0  0  0
   24.2350   10.8650   18.2430 C   0  0  0  0  0  0  0  0  0  0  0  0
   25.5500   10.8410   18.6560 C   0  0  0  0  0  0  0  0  0  0  0  0
   25.8710   10.7460   20.0070 C   0  0  0  0  0  0  0  0  0  0  0  0
   24.8260   10.6610   20.9430 C   0  0  0  0  0  0  0  0  0  0  0  0
    0.0000    0.0000    0.0000 H   0  0  0  0  0  0  0  0  0  0  0  0
    0.0000    0.0000    0.0000 H   0  0  0  0  0  0  0  0  0  0  0  0
    0.0000    0.0000    0.0000 H   0  0  0  0  0  0  0  0  0  0  0  0
    0.0000    0.0000    0.0000 H   0  0  0  0  0  0  0  0  0  0  0  0
    0.0000    0.0000    0.0000 H   0  0  0  0  0  0  0  0  0  0  0  0
    0.0000    0.0000    0.0000 H   0  0  0  0  0  0  0  0  0  0  0  0
    0.0000    0.0000    0.0000 H   0  0  0  0  0  0  0  0  0  0  0  0
    0.0000    0.0000    0.0000 H   0  0  0  0  0  0  0  0  0  0  0  0
    0.0000    0.0000    0.0000 H   0  0  0  0  0  0  0  0  0  0  0  0
    0.0000    0.0000    0.0000 H   0  0  0  0  0  0  0  0  0  0  0  0
    0.0000    0.0000    0.0000 H   0  0  0  0  0  0  0  0  0  0  0  0
    0.0000    0.0000    0.0000 H   0  0  0  0  0  0  0  0  0  0  0  0
    0.0000    0.0000    0.0000 H   0  0  0  0  0  0  0  0  0  0  0  0
    0.0000    0.0000    0.0000 H   0  0  0  0  0  0  0  0  0  0  0  0
   12.4624    5.2879    9.0997 N   0  0  0  0  0  0  0  0  0  0  0  0
   12.7506    4.7811    7.8037 C   0  0  0  0  0  0  0  0  0  0  0  0
   11.6220    4.2999    6.9738 C   0  0  0  0  0  0  0  0  0  0  0  0
   13.9123    4.7189    7.3233 O   0  0  0  0  0  0  0  0  0  0  0  0
   11.5008    5.3415    9.5026 H   0  0  0  0  0  0  0  0  0  0  0  0
   11.1400    5.1499    6.4091 H   0  0  0  0  0  0  0  0  0  0  0  0
   10.8745    3.7316    7.5581 H   0  0  0  0  0  0  0  0  0  0  0  0
   11.9981    3.6124    6.1889 H   0  0  0  0  0  0  0  0  0  0  0  0
  1  3  2  0
  1  4  1  0
  1  5  1  0
  2  4  1  0
  2  6  1  0
  4  9  1  0
  4 15  1  0
  5  6  1  0
  5  8  1  0
  6  7  2  3
  9 10  2  0
  9 14  1  0
 10 11  1  0
 11 12  2  0
 12 13  1  0
 13 14  2  0
 15 16  2  0
 15 20  1  0
 16 17  1  0
 17 18  2  0
 18 19  1  0
 19 20  2  0
  2 21  1  0
  7 22  1  0
  8 23  1  0
  8 24  1  0
  8 25  1  0
 10 26  1  0
 11 27  1  0
 12 28  1  0
 13 29  1  0
 14 30  1  0
 16 31  1  0
 17 32  1  0
 19 33  1  0
 20 34  1  0
 35 36  1  0
 36 37  1  0
 36 38  2  0
 35 39  1  0
 37 40  1  0
 37 41  1  0
 37 42  1  0
 18 35  1  0
M  END
>  <attachment_point>  (31) 
32

>  <score>  (31) 
<NA>

$$$$
4djw
     RDKit          3D

 40 42  0  0  0  0  0  0  0  0999 V2000
   22.4950   11.8750   22.5810 C   0  0  0  0  0  0  0  0  0  0  0  0
   22.5380    9.4930   22.4640 N   0  0  0  0  0  0  0  0  0  0  0  0
   22.3600   13.0630   22.3480 O   0  0  0  0  0  0  0  0  0  0  0  0
   22.3390   10.6680   21.5610 C   0  0  0  0  0  0  0  0  0  0  0  0
   22.7860   11.3350   23.8120 N   0  0  0  0  0  0  0  0  0  0  0  0
   22.7800    9.9140   23.7010 C   0  0  0  0  0  0  0  0  0  0  0  0
   22.9970    9.1110   24.7490 N   0  0  0  0  0  0  0  0  0  0  0  0
   23.0220   12.1410   25.0180 C   0  0  0  0  0  0  0  0  0  0  0  0
   20.9020   10.6270   21.0050 C   0  0  0  0  0  0  0  0  0  0  0  0
   20.2720    9.4140   20.7470 C   0  0  0  0  0  0  0  0  0  0  0  0
   18.9690    9.3760   20.2600 C   0  0  0  0  0  0  0  0  0  0  0  0
   18.2800   10.5440   20.0210 C   0  0  0  0  0  0  0  0  0  0  0  0
   18.8920   11.7530   20.2590 C   0  0  0  0  0  0  0  0  0  0  0  0
   20.1950   11.7970   20.7440 C   0  0  0  0  0  0  0  0  0  0  0  0
   23.4880   10.6920   20.5300 C   0  0  0  0  0  0  0  0  0  0  0  0
   23.2110   10.7890   19.1730 C   0  0  0  0  0  0  0  0  0  0  0  0
   24.2350   10.8650   18.2430 C   0  0  0  0  0  0  0  0  0  0  0  0
   25.5500   10.8410   18.6560 C   0  0  0  0  0  0  0  0  0  0  0  0
   25.8710   10.7460   20.0070 C   0  0  0  0  0  0  0  0  0  0  0  0
   24.8260   10.6610   20.9430 C   0  0  0  0  0  0  0  0  0  0  0  0
    0.0000    0.0000    0.0000 H   0  0  0  0  0  0  0  0  0  0  0  0
    0.0000    0.0000    0.0000 H   0  0  0  0  0  0  0  0  0  0  0  0
    0.0000    0.0000    0.0000 H   0  0  0  0  0  0  0  0  0  0  0  0
    0.0000    0.0000    0.0000 H   0  0  0  0  0  0  0  0  0  0  0  0
    0.0000    0.0000    0.0000 H   0  0  0  0  0  0  0  0  0  0  0  0
    0.0000    0.0000    0.0000 H   0  0  0  0  0  0  0  0  0  0  0  0
    0.0000    0.0000    0.0000 H   0  0  0  0  0  0  0  0  0  0  0  0
    0.0000    0.0000    0.0000 H   0  0  0  0  0  0  0  0  0  0  0  0
    0.0000    0.0000    0.0000 H   0  0  0  0  0  0  0  0  0  0  0  0
    0.0000    0.0000    0.0000 H   0  0  0  0  0  0  0  0  0  0  0  0
    0.0000    0.0000    0.0000 H   0  0  0  0  0  0  0  0  0  0  0  0
    0.0000    0.0000    0.0000 H   0  0  0  0  0  0  0  0  0  0  0  0
    0.0000    0.0000    0.0000 H   0  0  0  0  0  0  0  0  0  0  0  0
    0.0000    0.0000    0.0000 H   0  0  0  0  0  0  0  0  0  0  0  0
   12.4718    5.2918    9.1066 N   0  0  0  0  0  0  0  0  0  0  0  0
   11.3422    6.1717    9.3645 C   0  0  0  0  0  0  0  0  0  0  0  0
   12.7528    5.4851    8.1110 H   0  0  0  0  0  0  0  0  0  0  0  0
   10.8030    5.8296   10.2725 H   0  0  0  0  0  0  0  0  0  0  0  0
   10.5889    6.0878    8.5321 H   0  0  0  0  0  0  0  0  0  0  0  0
   11.6984    7.2098    9.4275 H   0  0  0  0  0  0  0  0  0  0  0  0
  1  3  2  0
  1  4  1  0
  1  5  1  0
  2  4  1  0
  2  6  1  0
  4  9  1  0
  4 15  1  0
  5  6  1  0
  5  8  1  0
  6  7  2  3
  9 10  2  0
  9 14  1  0
 10 11  1  0
 11 12  2  0
 12 13  1  0
 13 14  2  0
 15 16  2  0
 15 20  1  0
 16 17  1  0
 17 18  2  0
 18 19  1  0
 19 20  2  0
  2 21  1  0
  7 22  1  0
  8 23  1  0
  8 24  1  0
  8 25  1  0
 10 26  1  0
 11 27  1  0
 12 28  1  0
 13 29  1  0
 14 30  1  0
 16 31  1  0
 17 32  1  0
 19 33  1  0
 20 34  1  0
 35 36  1  0
 35 37  1  0
 36 38  1  0
 36 39  1  0
 36 40  1  0
 18 35  1  0
M  END
>  <attachment_point>  (32) 
32

>  <score>  (32) 
<NA>

$$$$
4djw
     RDKit          3D

 40 42  0  0  0  0  0  0  0  0999 V2000
   22.4950   11.8750   22.5810 C   0  0  0  0  0  0  0  0  0  0  0  0
   22.5380    9.4930   22.4640 N   0  0  0  0  0  0  0  0  0  0  0  0
   22.3600   13.0630   22.3480 O   0  0  0  0  0  0  0  0  0  0  0  0
   22.3390   10.6680   21.5610 C   0  0  0  0  0  0  0  0  0  0  0  0
   22.7860   11.3350   23.8120 N   0  0  0  0  0  0  0  0  0  0  0  0
   22.7800    9.9140   23.7010 C   0  0  0  0  0  0  0  0  0  0  0  0
   22.9970    9.1110   24.7490 N   0  0  0  0  0  0  0  0  0  0  0  0
   23.0220   12.1410   25.0180 C   0  0  0  0  0  0  0  0  0  0  0  0
   20.9020   10.6270   21.0050 C   0  0  0  0  0  0  0  0  0  0  0  0
   20.2720    9.4140   20.7470 C   0  0  0  0  0  0  0  0  0  0  0  0
   18.9690    9.3760   20.2600 C   0  0  0  0  0  0  0  0  0  0  0  0
   18.2800   10.5440   20.0210 C   0  0  0  0  0  0  0  0  0  0  0  0
   18.8920   11.7530   20.2590 C   0  0  0  0  0  0  0  0  0  0  0  0
   20.1950   11.7970   20.7440 C   0  0  0  0  0  0  0  0  0  0  0  0
   23.4880   10.6920   20.5300 C   0  0  0  0  0  0  0  0  0  0  0  0
   23.2110   10.7890   19.1730 C   0  0  0  0  0  0  0  0  0  0  0  0
   24.2350   10.8650   18.2430 C   0  0  0  0  0  0  0  0  0  0  0  0
   25.5500   10.8410   18.6560 C   0  0  0  0  0  0  0  0  0  0  0  0
   25.8710   10.7460   20.0070 C   0  0  0  0  0  0  0  0  0  0  0  0
   24.8260   10.6610   20.9430 C   0  0  0  0  0  0  0  0  0  0  0  0
    0.0000    0.0000    0.0000 H   0  0  0  0  0  0  0  0  0  0  0  0
    0.0000    0.0000    0.0000 H   0  0  0  0  0  0  0  0  0  0  0  0
    0.0000    0.0000    0.0000 H   0  0  0  0  0  0  0  0  0  0  0  0
    0.0000    0.0000    0.0000 H   0  0  0  0  0  0  0  0  0  0  0  0
    0.0000    0.0000    0.0000 H   0  0  0  0  0  0  0  0  0  0  0  0
    0.0000    0.0000    0.0000 H   0  0  0  0  0  0  0  0  0  0  0  0
    0.0000    0.0000    0.0000 H   0  0  0  0  0  0  0  0  0  0  0  0
    0.0000    0.0000    0.0000 H   0  0  0  0  0  0  0  0  0  0  0  0
    0.0000    0.0000    0.0000 H   0  0  0  0  0  0  0  0  0  0  0  0
    0.0000    0.0000    0.0000 H   0  0  0  0  0  0  0  0  0  0  0  0
    0.0000    0.0000    0.0000 H   0  0  0  0  0  0  0  0  0  0  0  0
    0.0000    0.0000    0.0000 H   0  0  0  0  0  0  0  0  0  0  0  0
    0.0000    0.0000    0.0000 H   0  0  0  0  0  0  0  0  0  0  0  0
    0.0000    0.0000    0.0000 H   0  0  0  0  0  0  0  0  0  0  0  0
   12.4097    5.2655    9.0613 C   0  0  0  0  0  0  0  0  0  0  0  0
   11.1541    5.0566    9.7199 C   0  0  0  0  0  0  0  0  0  0  0  0
   12.6590    5.1007    7.9260 O   0  0  0  0  0  0  0  0  0  0  0  0
   10.4808    5.9341    9.6511 H   0  0  0  0  0  0  0  0  0  0  0  0
   10.6332    4.1428    9.3329 H   0  0  0  0  0  0  0  0  0  0  0  0
   11.2308    4.8580   10.8311 H   0  0  0  0  0  0  0  0  0  0  0  0
  1  3  2  0
  1  4  1  0
  1  5  1  0
  2  4  1  0
  2  6  1  0
  4  9  1  0
  4 15  1  0
  5  6  1  0
  5  8  1  0
  6  7  2  3
  9 10  2  0
  9 14  1  0
 10 11  1  0
 11 12  2  0
 12 13  1  0
 13 14  2  0
 15 16  2  0
 15 20  1  0
 16 17  1  0
 17 18  2  0
 18 19  1  0
 19 20  2  0
  2 21  1  0
  7 22  1  0
  8 23  1  0
  8 24  1  0
  8 25  1  0
 10 26  1  0
 11 27  1  0
 12 28  1  0
 13 29  1  0
 14 30  1  0
 16 31  1  0
 17 32  1  0
 19 33  1  0
 20 34  1  0
 35 36  1  0
 35 37  2  0
 36 38  1  0
 36 39  1  0
 36 40  1  0
 18 35  1  0
M  END
>  <attachment_point>  (33) 
32

>  <score>  (33) 
<NA>

$$$$
4djw
     RDKit          3D

 45 48  0  0  0  0  0  0  0  0999 V2000
   22.4950   11.8750   22.5810 C   0  0  0  0  0  0  0  0  0  0  0  0
   22.5380    9.4930   22.4640 N   0  0  0  0  0  0  0  0  0  0  0  0
   22.3600   13.0630   22.3480 O   0  0  0  0  0  0  0  0  0  0  0  0
   22.3390   10.6680   21.5610 C   0  0  0  0  0  0  0  0  0  0  0  0
   22.7860   11.3350   23.8120 N   0  0  0  0  0  0  0  0  0  0  0  0
   22.7800    9.9140   23.7010 C   0  0  0  0  0  0  0  0  0  0  0  0
   22.9970    9.1110   24.7490 N   0  0  0  0  0  0  0  0  0  0  0  0
   23.0220   12.1410   25.0180 C   0  0  0  0  0  0  0  0  0  0  0  0
   20.9020   10.6270   21.0050 C   0  0  0  0  0  0  0  0  0  0  0  0
   20.2720    9.4140   20.7470 C   0  0  0  0  0  0  0  0  0  0  0  0
   18.9690    9.3760   20.2600 C   0  0  0  0  0  0  0  0  0  0  0  0
   18.2800   10.5440   20.0210 C   0  0  0  0  0  0  0  0  0  0  0  0
   18.8920   11.7530   20.2590 C   0  0  0  0  0  0  0  0  0  0  0  0
   20.1950   11.7970   20.7440 C   0  0  0  0  0  0  0  0  0  0  0  0
   23.4880   10.6920   20.5300 C   0  0  0  0  0  0  0  0  0  0  0  0
   23.2110   10.7890   19.1730 C   0  0  0  0  0  0  0  0  0  0  0  0
   24.2350   10.8650   18.2430 C   0  0  0  0  0  0  0  0  0  0  0  0
   25.5500   10.8410   18.6560 C   0  0  0  0  0  0  0  0  0  0  0  0
   25.8710   10.7460   20.0070 C   0  0  0  0  0  0  0  0  0  0  0  0
   24.8260   10.6610   20.9430 C   0  0  0  0  0  0  0  0  0  0  0  0
    0.0000    0.0000    0.0000 H   0  0  0  0  0  0  0  0  0  0  0  0
    0.0000    0.0000    0.0000 H   0  0  0  0  0  0  0  0  0  0  0  0
    0.0000    0.0000    0.0000 H   0  0  0  0  0  0  0  0  0  0  0  0
    0.0000    0.0000    0.0000 H   0  0  0  0  0  0  0  0  0  0  0  0
    0.0000    0.0000    0.0000 H   0  0  0  0  0  0  0  0  0  0  0  0
    0.0000    0.0000    0.0000 H   0  0  0  0  0  0  0  0  0  0  0  0
    0.0000    0.0000    0.0000 H   0  0  0  0  0  0  0  0  0  0  0  0
    0.0000    0.0000    0.0000 H   0  0  0  0  0  0  0  0  0  0  0  0
    0.0000    0.0000    0.0000 H   0  0  0  0  0  0  0  0  0  0  0  0
    0.0000    0.0000    0.0000 H   0  0  0  0  0  0  0  0  0  0  0  0
    0.0000    0.0000    0.0000 H   0  0  0  0  0  0  0  0  0  0  0  0
    0.0000    0.0000    0.0000 H   0  0  0  0  0  0  0  0  0  0  0  0
    0.0000    0.0000    0.0000 H   0  0  0  0  0  0  0  0  0  0  0  0
    0.0000    0.0000    0.0000 H   0  0  0  0  0  0  0  0  0  0  0  0
   12.4287    5.2736    9.0751 C   0  0  0  0  0  0  0  0  0  0  0  0
   12.1108    3.9412    9.0469 C   0  0  0  0  0  0  0  0  0  0  0  0
   11.0319    3.5627    8.2456 C   0  0  0  0  0  0  0  0  0  0  0  0
   10.3138    4.4775    7.5136 C   0  0  0  0  0  0  0  0  0  0  0  0
    8.9651    3.9083    6.5283 Cl  0  0  0  0  0  0  0  0  0  0  0  0
   10.6750    5.7906    7.5799 C   0  0  0  0  0  0  0  0  0  0  0  0
   11.7384    6.2200    8.3601 C   0  0  0  0  0  0  0  0  0  0  0  0
   12.6693    3.2233    9.6174 H   0  0  0  0  0  0  0  0  0  0  0  0
   10.7988    2.5018    8.2391 H   0  0  0  0  0  0  0  0  0  0  0  0
   10.1076    6.5003    7.0038 H   0  0  0  0  0  0  0  0  0  0  0  0
   11.9846    7.2610    8.3805 H   0  0  0  0  0  0  0  0  0  0  0  0
  1  3  2  0
  1  4  1  0
  1  5  1  0
  2  4  1  0
  2  6  1  0
  4  9  1  0
  4 15  1  0
  5  6  1  0
  5  8  1  0
  6  7  2  3
  9 10  2  0
  9 14  1  0
 10 11  1  0
 11 12  2  0
 12 13  1  0
 13 14  2  0
 15 16  2  0
 15 20  1  0
 16 17  1  0
 17 18  2  0
 18 19  1  0
 19 20  2  0
  2 21  1  0
  7 22  1  0
  8 23  1  0
  8 24  1  0
  8 25  1  0
 10 26  1  0
 11 27  1  0
 12 28  1  0
 13 29  1  0
 14 30  1  0
 16 31  1  0
 17 32  1  0
 19 33  1  0
 20 34  1  0
 35 36  2  0
 36 37  1  0
 37 38  2  0
 38 39  1  0
 38 40  1  0
 40 41  2  0
 41 35  1  0
 36 42  1  0
 37 43  1  0
 40 44  1  0
 41 45  1  0
 18 35  1  0
M  END
>  <attachment_point>  (34) 
32

>  <score>  (34) 
<NA>

$$$$
4djw
     RDKit          3D

 52 55  0  0  0  0  0  0  0  0999 V2000
   22.4950   11.8750   22.5810 C   0  0  0  0  0  0  0  0  0  0  0  0
   22.5380    9.4930   22.4640 N   0  0  0  0  0  0  0  0  0  0  0  0
   22.3600   13.0630   22.3480 O   0  0  0  0  0  0  0  0  0  0  0  0
   22.3390   10.6680   21.5610 C   0  0  0  0  0  0  0  0  0  0  0  0
   22.7860   11.3350   23.8120 N   0  0  0  0  0  0  0  0  0  0  0  0
   22.7800    9.9140   23.7010 C   0  0  0  0  0  0  0  0  0  0  0  0
   22.9970    9.1110   24.7490 N   0  0  0  0  0  0  0  0  0  0  0  0
   23.0220   12.1410   25.0180 C   0  0  0  0  0  0  0  0  0  0  0  0
   20.9020   10.6270   21.0050 C   0  0  0  0  0  0  0  0  0  0  0  0
   20.2720    9.4140   20.7470 C   0  0  0  0  0  0  0  0  0  0  0  0
   18.9690    9.3760   20.2600 C   0  0  0  0  0  0  0  0  0  0  0  0
   18.2800   10.5440   20.0210 C   0  0  0  0  0  0  0  0  0  0  0  0
   18.8920   11.7530   20.2590 C   0  0  0  0  0  0  0  0  0  0  0  0
   20.1950   11.7970   20.7440 C   0  0  0  0  0  0  0  0  0  0  0  0
   23.4880   10.6920   20.5300 C   0  0  0  0  0  0  0  0  0  0  0  0
   23.2110   10.7890   19.1730 C   0  0  0  0  0  0  0  0  0  0  0  0
   24.2350   10.8650   18.2430 C   0  0  0  0  0  0  0  0  0  0  0  0
   25.5500   10.8410   18.6560 C   0  0  0  0  0  0  0  0  0  0  0  0
   25.8710   10.7460   20.0070 C   0  0  0  0  0  0  0  0  0  0  0  0
   24.8260   10.6610   20.9430 C   0  0  0  0  0  0  0  0  0  0  0  0
    0.0000    0.0000    0.0000 H   0  0  0  0  0  0  0  0  0  0  0  0
    0.0000    0.0000    0.0000 H   0  0  0  0  0  0  0  0  0  0  0  0
    0.0000    0.0000    0.0000 H   0  0  0  0  0  0  0  0  0  0  0  0
    0.0000    0.0000    0.0000 H   0  0  0  0  0  0  0  0  0  0  0  0
    0.0000    0.0000    0.0000 H   0  0  0  0  0  0  0  0  0  0  0  0
    0.0000    0.0000    0.0000 H   0  0  0  0  0  0  0  0  0  0  0  0
    0.0000    0.0000    0.0000 H   0  0  0  0  0  0  0  0  0  0  0  0
    0.0000    0.0000    0.0000 H   0  0  0  0  0  0  0  0  0  0  0  0
    0.0000    0.0000    0.0000 H   0  0  0  0  0  0  0  0  0  0  0  0
    0.0000    0.0000    0.0000 H   0  0  0  0  0  0  0  0  0  0  0  0
    0.0000    0.0000    0.0000 H   0  0  0  0  0  0  0  0  0  0  0  0
    0.0000    0.0000    0.0000 H   0  0  0  0  0  0  0  0  0  0  0  0
    0.0000    0.0000    0.0000 H   0  0  0  0  0  0  0  0  0  0  0  0
    0.0000    0.0000    0.0000 H   0  0  0  0  0  0  0  0  0  0  0  0
   12.4926    5.3007    9.1218 N   0  0  0  0  0  0  0  0  0  0  0  0
   11.3833    6.1728    9.0634 C   0  0  0  0  0  0  0  0  0  0  0  0
   10.2097    5.6729    8.2804 C   0  0  0  0  0  0  0  0  0  0  0  0
   10.4658    4.3775    7.6997 N   0  0  0  0  0  0  0  0  0  0  0  0
    9.2592    3.8557    7.0975 C   0  0  0  0  0  0  0  0  0  0  0  0
   10.9435    3.4443    8.6622 C   0  0  0  0  0  0  0  0  0  0  0  0
   12.2131    3.9207    9.2983 C   0  0  0  0  0  0  0  0  0  0  0  0
   11.7289    7.1458    8.6120 H   0  0  0  0  0  0  0  0  0  0  0  0
   11.0573    6.4505   10.0972 H   0  0  0  0  0  0  0  0  0  0  0  0
    9.9818    6.3610    7.4219 H   0  0  0  0  0  0  0  0  0  0  0  0
    9.2853    5.6920    8.9076 H   0  0  0  0  0  0  0  0  0  0  0  0
    9.5880    3.1185    6.3252 H   0  0  0  0  0  0  0  0  0  0  0  0
    8.7374    3.2566    7.8860 H   0  0  0  0  0  0  0  0  0  0  0  0
    8.6139    4.6493    6.6819 H   0  0  0  0  0  0  0  0  0  0  0  0
   11.0888    2.4611    8.1343 H   0  0  0  0  0  0  0  0  0  0  0  0
   10.1249    3.2511    9.3941 H   0  0  0  0  0  0  0  0  0  0  0  0
   13.0519    3.3442    8.8066 H   0  0  0  0  0  0  0  0  0  0  0  0
   12.2123    3.5803   10.3494 H   0  0  0  0  0  0  0  0  0  0  0  0
  1  3  2  0
  1  4  1  0
  1  5  1  0
  2  4  1  0
  2  6  1  0
  4  9  1  0
  4 15  1  0
  5  6  1  0
  5  8  1  0
  6  7  2  3
  9 10  2  0
  9 14  1  0
 10 11  1  0
 11 12  2  0
 12 13  1  0
 13 14  2  0
 15 16  2  0
 15 20  1  0
 16 17  1  0
 17 18  2  0
 18 19  1  0
 19 20  2  0
  2 21  1  0
  7 22  1  0
  8 23  1  0
  8 24  1  0
  8 25  1  0
 10 26  1  0
 11 27  1  0
 12 28  1  0
 13 29  1  0
 14 30  1  0
 16 31  1  0
 17 32  1  0
 19 33  1  0
 20 34  1  0
 35 36  1  0
 36 37  1  0
 37 38  1  0
 38 39  1  0
 38 40  1  0
 40 41  1  0
 41 35  1  0
 36 42  1  0
 36 43  1  0
 37 44  1  0
 37 45  1  0
 39 46  1  0
 39 47  1  0
 39 48  1  0
 40 49  1  0
 40 50  1  0
 41 51  1  0
 41 52  1  0
 18 35  1  0
M  END
>  <attachment_point>  (35) 
32

>  <score>  (35) 
<NA>

$$$$
4djw
     RDKit          3D

 49 52  0  0  0  0  0  0  0  0999 V2000
   22.4950   11.8750   22.5810 C   0  0  0  0  0  0  0  0  0  0  0  0
   22.5380    9.4930   22.4640 N   0  0  0  0  0  0  0  0  0  0  0  0
   22.3600   13.0630   22.3480 O   0  0  0  0  0  0  0  0  0  0  0  0
   22.3390   10.6680   21.5610 C   0  0  0  0  0  0  0  0  0  0  0  0
   22.7860   11.3350   23.8120 N   0  0  0  0  0  0  0  0  0  0  0  0
   22.7800    9.9140   23.7010 C   0  0  0  0  0  0  0  0  0  0  0  0
   22.9970    9.1110   24.7490 N   0  0  0  0  0  0  0  0  0  0  0  0
   23.0220   12.1410   25.0180 C   0  0  0  0  0  0  0  0  0  0  0  0
   20.9020   10.6270   21.0050 C   0  0  0  0  0  0  0  0  0  0  0  0
   20.2720    9.4140   20.7470 C   0  0  0  0  0  0  0  0  0  0  0  0
   18.9690    9.3760   20.2600 C   0  0  0  0  0  0  0  0  0  0  0  0
   18.2800   10.5440   20.0210 C   0  0  0  0  0  0  0  0  0  0  0  0
   18.8920   11.7530   20.2590 C   0  0  0  0  0  0  0  0  0  0  0  0
   20.1950   11.7970   20.7440 C   0  0  0  0  0  0  0  0  0  0  0  0
   23.4880   10.6920   20.5300 C   0  0  0  0  0  0  0  0  0  0  0  0
   23.2110   10.7890   19.1730 C   0  0  0  0  0  0  0  0  0  0  0  0
   24.2350   10.8650   18.2430 C   0  0  0  0  0  0  0  0  0  0  0  0
   25.5500   10.8410   18.6560 C   0  0  0  0  0  0  0  0  0  0  0  0
   25.8710   10.7460   20.0070 C   0  0  0  0  0  0  0  0  0  0  0  0
   24.8260   10.6610   20.9430 C   0  0  0  0  0  0  0  0  0  0  0  0
    0.0000    0.0000    0.0000 H   0  0  0  0  0  0  0  0  0  0  0  0
    0.0000    0.0000    0.0000 H   0  0  0  0  0  0  0  0  0  0  0  0
    0.0000    0.0000    0.0000 H   0  0  0  0  0  0  0  0  0  0  0  0
    0.0000    0.0000    0.0000 H   0  0  0  0  0  0  0  0  0  0  0  0
    0.0000    0.0000    0.0000 H   0  0  0  0  0  0  0  0  0  0  0  0
    0.0000    0.0000    0.0000 H   0  0  0  0  0  0  0  0  0  0  0  0
    0.0000    0.0000    0.0000 H   0  0  0  0  0  0  0  0  0  0  0  0
    0.0000    0.0000    0.0000 H   0  0  0  0  0  0  0  0  0  0  0  0
    0.0000    0.0000    0.0000 H   0  0  0  0  0  0  0  0  0  0  0  0
    0.0000    0.0000    0.0000 H   0  0  0  0  0  0  0  0  0  0  0  0
    0.0000    0.0000    0.0000 H   0  0  0  0  0  0  0  0  0  0  0  0
    0.0000    0.0000    0.0000 H   0  0  0  0  0  0  0  0  0  0  0  0
    0.0000    0.0000    0.0000 H   0  0  0  0  0  0  0  0  0  0  0  0
    0.0000    0.0000    0.0000 H   0  0  0  0  0  0  0  0  0  0  0  0
   12.4121    5.2665    9.0631 O   0  0  0  0  0  0  0  0  0  0  0  0
   12.9219    3.9832    8.8568 C   0  0  0  0  0  0  0  0  0  0  0  0
   14.2380    4.0213    8.1656 C   0  0  0  0  0  0  0  0  0  0  0  0
   15.4355    4.0889    8.8398 C   0  0  0  0  0  0  0  0  0  0  0  0
   16.6329    4.1218    8.1381 C   0  0  0  0  0  0  0  0  0  0  0  0
   16.6856    4.0893    6.7608 C   0  0  0  0  0  0  0  0  0  0  0  0
   15.4823    4.0217    6.0910 C   0  0  0  0  0  0  0  0  0  0  0  0
   14.2891    3.9888    6.7881 C   0  0  0  0  0  0  0  0  0  0  0  0
   12.2119    3.4543    8.2158 H   0  0  0  0  0  0  0  0  0  0  0  0
   13.0283    3.5012    9.8543 H   0  0  0  0  0  0  0  0  0  0  0  0
   15.3934    4.1141    9.9132 H   0  0  0  0  0  0  0  0  0  0  0  0
   17.5769    4.1750    8.6662 H   0  0  0  0  0  0  0  0  0  0  0  0
   17.6260    4.1153    6.2160 H   0  0  0  0  0  0  0  0  0  0  0  0
   15.5042    3.9950    4.9928 H   0  0  0  0  0  0  0  0  0  0  0  0
   13.3451    3.9350    6.2303 H   0  0  0  0  0  0  0  0  0  0  0  0
  1  3  2  0
  1  4  1  0
  1  5  1  0
  2  4  1  0
  2  6  1  0
  4  9  1  0
  4 15  1  0
  5  6  1  0
  5  8  1  0
  6  7  2  3
  9 10  2  0
  9 14  1  0
 10 11  1  0
 11 12  2  0
 12 13  1  0
 13 14  2  0
 15 16  2  0
 15 20  1  0
 16 17  1  0
 17 18  2  0
 18 19  1  0
 19 20  2  0
  2 21  1  0
  7 22  1  0
  8 23  1  0
  8 24  1  0
  8 25  1  0
 10 26  1  0
 11 27  1  0
 12 28  1  0
 13 29  1  0
 14 30  1  0
 16 31  1  0
 17 32  1  0
 19 33  1  0
 20 34  1  0
 35 36  1  0
 36 37  1  0
 37 38  2  0
 38 39  1  0
 39 40  2  0
 40 41  1  0
 41 42  2  0
 42 37  1  0
 36 43  1  0
 36 44  1  0
 38 45  1  0
 39 46  1  0
 40 47  1  0
 41 48  1  0
 42 49  1  0
 18 35  1  0
M  END
>  <attachment_point>  (36) 
32

>  <score>  (36) 
<NA>

$$$$
4djw
     RDKit          3D

 40 42  0  0  0  0  0  0  0  0999 V2000
   22.4950   11.8750   22.5810 C   0  0  0  0  0  0  0  0  0  0  0  0
   22.5380    9.4930   22.4640 N   0  0  0  0  0  0  0  0  0  0  0  0
   22.3600   13.0630   22.3480 O   0  0  0  0  0  0  0  0  0  0  0  0
   22.3390   10.6680   21.5610 C   0  0  0  0  0  0  0  0  0  0  0  0
   22.7860   11.3350   23.8120 N   0  0  0  0  0  0  0  0  0  0  0  0
   22.7800    9.9140   23.7010 C   0  0  0  0  0  0  0  0  0  0  0  0
   22.9970    9.1110   24.7490 N   0  0  0  0  0  0  0  0  0  0  0  0
   23.0220   12.1410   25.0180 C   0  0  0  0  0  0  0  0  0  0  0  0
   20.9020   10.6270   21.0050 C   0  0  0  0  0  0  0  0  0  0  0  0
   20.2720    9.4140   20.7470 C   0  0  0  0  0  0  0  0  0  0  0  0
   18.9690    9.3760   20.2600 C   0  0  0  0  0  0  0  0  0  0  0  0
   18.2800   10.5440   20.0210 C   0  0  0  0  0  0  0  0  0  0  0  0
   18.8920   11.7530   20.2590 C   0  0  0  0  0  0  0  0  0  0  0  0
   20.1950   11.7970   20.7440 C   0  0  0  0  0  0  0  0  0  0  0  0
   23.4880   10.6920   20.5300 C   0  0  0  0  0  0  0  0  0  0  0  0
   23.2110   10.7890   19.1730 C   0  0  0  0  0  0  0  0  0  0  0  0
   24.2350   10.8650   18.2430 C   0  0  0  0  0  0  0  0  0  0  0  0
   25.5500   10.8410   18.6560 C   0  0  0  0  0  0  0  0  0  0  0  0
   25.8710   10.7460   20.0070 C   0  0  0  0  0  0  0  0  0  0  0  0
   24.8260   10.6610   20.9430 C   0  0  0  0  0  0  0  0  0  0  0  0
    0.0000    0.0000    0.0000 H   0  0  0  0  0  0  0  0  0  0  0  0
    0.0000    0.0000    0.0000 H   0  0  0  0  0  0  0  0  0  0  0  0
    0.0000    0.0000    0.0000 H   0  0  0  0  0  0  0  0  0  0  0  0
    0.0000    0.0000    0.0000 H   0  0  0  0  0  0  0  0  0  0  0  0
    0.0000    0.0000    0.0000 H   0  0  0  0  0  0  0  0  0  0  0  0
    0.0000    0.0000    0.0000 H   0  0  0  0  0  0  0  0  0  0  0  0
    0.0000    0.0000    0.0000 H   0  0  0  0  0  0  0  0  0  0  0  0
    0.0000    0.0000    0.0000 H   0  0  0  0  0  0  0  0  0  0  0  0
    0.0000    0.0000    0.0000 H   0  0  0  0  0  0  0  0  0  0  0  0
    0.0000    0.0000    0.0000 H   0  0  0  0  0  0  0  0  0  0  0  0
    0.0000    0.0000    0.0000 H   0  0  0  0  0  0  0  0  0  0  0  0
    0.0000    0.0000    0.0000 H   0  0  0  0  0  0  0  0  0  0  0  0
    0.0000    0.0000    0.0000 H   0  0  0  0  0  0  0  0  0  0  0  0
    0.0000    0.0000    0.0000 H   0  0  0  0  0  0  0  0  0  0  0  0
   12.2862    5.2131    8.9711 C   0  0  0  0  0  0  0  0  0  0  0  0
   11.4106    5.6888    9.9312 N   0  0  0  0  0  0  0  0  0  0  0  0
   12.6727    5.8896    8.2392 H   0  0  0  0  0  0  0  0  0  0  0  0
   12.7717    4.2566    9.1063 H   0  0  0  0  0  0  0  0  0  0  0  0
   11.4464    6.6642   10.2216 H   0  0  0  0  0  0  0  0  0  0  0  0
   10.6895    5.0937   10.3046 H   0  0  0  0  0  0  0  0  0  0  0  0
  1  3  2  0
  1  4  1  0
  1  5  1  0
  2  4  1  0
  2  6  1  0
  4  9  1  0
  4 15  1  0
  5  6  1  0
  5  8  1  0
  6  7  2  3
  9 10  2  0
  9 14  1  0
 10 11  1  0
 11 12  2  0
 12 13  1  0
 13 14  2  0
 15 16  2  0
 15 20  1  0
 16 17  1  0
 17 18  2  0
 18 19  1  0
 19 20  2  0
  2 21  1  0
  7 22  1  0
  8 23  1  0
  8 24  1  0
  8 25  1  0
 10 26  1  0
 11 27  1  0
 12 28  1  0
 13 29  1  0
 14 30  1  0
 16 31  1  0
 17 32  1  0
 19 33  1  0
 20 34  1  0
 35 36  1  0
 35 37  1  0
 35 38  1  0
 36 39  1  0
 36 40  1  0
 18 35  1  0
M  END
>  <attachment_point>  (37) 
32

>  <score>  (37) 
<NA>

$$$$
4djw
     RDKit          3D

 51 54  0  0  0  0  0  0  0  0999 V2000
   22.4950   11.8750   22.5810 C   0  0  0  0  0  0  0  0  0  0  0  0
   22.5380    9.4930   22.4640 N   0  0  0  0  0  0  0  0  0  0  0  0
   22.3600   13.0630   22.3480 O   0  0  0  0  0  0  0  0  0  0  0  0
   22.3390   10.6680   21.5610 C   0  0  0  0  0  0  0  0  0  0  0  0
   22.7860   11.3350   23.8120 N   0  0  0  0  0  0  0  0  0  0  0  0
   22.7800    9.9140   23.7010 C   0  0  0  0  0  0  0  0  0  0  0  0
   22.9970    9.1110   24.7490 N   0  0  0  0  0  0  0  0  0  0  0  0
   23.0220   12.1410   25.0180 C   0  0  0  0  0  0  0  0  0  0  0  0
   20.9020   10.6270   21.0050 C   0  0  0  0  0  0  0  0  0  0  0  0
   20.2720    9.4140   20.7470 C   0  0  0  0  0  0  0  0  0  0  0  0
   18.9690    9.3760   20.2600 C   0  0  0  0  0  0  0  0  0  0  0  0
   18.2800   10.5440   20.0210 C   0  0  0  0  0  0  0  0  0  0  0  0
   18.8920   11.7530   20.2590 C   0  0  0  0  0  0  0  0  0  0  0  0
   20.1950   11.7970   20.7440 C   0  0  0  0  0  0  0  0  0  0  0  0
   23.4880   10.6920   20.5300 C   0  0  0  0  0  0  0  0  0  0  0  0
   23.2110   10.7890   19.1730 C   0  0  0  0  0  0  0  0  0  0  0  0
   24.2350   10.8650   18.2430 C   0  0  0  0  0  0  0  0  0  0  0  0
   25.5500   10.8410   18.6560 C   0  0  0  0  0  0  0  0  0  0  0  0
   25.8710   10.7460   20.0070 C   0  0  0  0  0  0  0  0  0  0  0  0
   24.8260   10.6610   20.9430 C   0  0  0  0  0  0  0  0  0  0  0  0
    0.0000    0.0000    0.0000 H   0  0  0  0  0  0  0  0  0  0  0  0
    0.0000    0.0000    0.0000 H   0  0  0  0  0  0  0  0  0  0  0  0
    0.0000    0.0000    0.0000 H   0  0  0  0  0  0  0  0  0  0  0  0
    0.0000    0.0000    0.0000 H   0  0  0  0  0  0  0  0  0  0  0  0
    0.0000    0.0000    0.0000 H   0  0  0  0  0  0  0  0  0  0  0  0
    0.0000    0.0000    0.0000 H   0  0  0  0  0  0  0  0  0  0  0  0
    0.0000    0.0000    0.0000 H   0  0  0  0  0  0  0  0  0  0  0  0
    0.0000    0.0000    0.0000 H   0  0  0  0  0  0  0  0  0  0  0  0
    0.0000    0.0000    0.0000 H   0  0  0  0  0  0  0  0  0  0  0  0
    0.0000    0.0000    0.0000 H   0  0  0  0  0  0  0  0  0  0  0  0
    0.0000    0.0000    0.0000 H   0  0  0  0  0  0  0  0  0  0  0  0
    0.0000    0.0000    0.0000 H   0  0  0  0  0  0  0  0  0  0  0  0
    0.0000    0.0000    0.0000 H   0  0  0  0  0  0  0  0  0  0  0  0
    0.0000    0.0000    0.0000 H   0  0  0  0  0  0  0  0  0  0  0  0
   12.4497    5.2825    9.0905 C   0  0  0  0  0  0  0  0  0  0  0  0
   11.7534    4.1647    9.8682 C   0  0  0  0  0  0  0  0  0  0  0  0
   11.2549    4.6813   11.1666 C   0  0  0  0  0  0  0  0  0  0  0  0
   12.0236    4.6551   12.3154 C   0  0  0  0  0  0  0  0  0  0  0  0
   11.5215    5.1463   13.5041 C   0  0  0  0  0  0  0  0  0  0  0  0
   10.2540    5.6784   13.6101 C   0  0  0  0  0  0  0  0  0  0  0  0
    9.4864    5.7050   12.4644 C   0  0  0  0  0  0  0  0  0  0  0  0
    9.9859    5.2142   11.2727 C   0  0  0  0  0  0  0  0  0  0  0  0
   11.7485    6.0739    8.8118 H   0  0  0  0  0  0  0  0  0  0  0  0
   12.8797    4.8048    8.1928 H   0  0  0  0  0  0  0  0  0  0  0  0
   10.9065    3.8043    9.2347 H   0  0  0  0  0  0  0  0  0  0  0  0
   12.4870    3.3511    9.9737 H   0  0  0  0  0  0  0  0  0  0  0  0
   13.0151    4.2452   12.2594 H   0  0  0  0  0  0  0  0  0  0  0  0
   12.1103    5.1373   14.4301 H   0  0  0  0  0  0  0  0  0  0  0  0
    9.8774    6.0601   14.5557 H   0  0  0  0  0  0  0  0  0  0  0  0
    8.4879    6.1181   12.5226 H   0  0  0  0  0  0  0  0  0  0  0  0
    9.3800    5.2333   10.3608 H   0  0  0  0  0  0  0  0  0  0  0  0
  1  3  2  0
  1  4  1  0
  1  5  1  0
  2  4  1  0
  2  6  1  0
  4  9  1  0
  4 15  1  0
  5  6  1  0
  5  8  1  0
  6  7  2  3
  9 10  2  0
  9 14  1  0
 10 11  1  0
 11 12  2  0
 12 13  1  0
 13 14  2  0
 15 16  2  0
 15 20  1  0
 16 17  1  0
 17 18  2  0
 18 19  1  0
 19 20  2  0
  2 21  1  0
  7 22  1  0
  8 23  1  0
  8 24  1  0
  8 25  1  0
 10 26  1  0
 11 27  1  0
 12 28  1  0
 13 29  1  0
 14 30  1  0
 16 31  1  0
 17 32  1  0
 19 33  1  0
 20 34  1  0
 35 36  1  0
 36 37  1  0
 37 38  2  0
 38 39  1  0
 39 40  2  0
 40 41  1  0
 41 42  2  0
 42 37  1  0
 35 43  1  0
 35 44  1  0
 36 45  1  0
 36 46  1  0
 38 47  1  0
 39 48  1  0
 40 49  1  0
 41 50  1  0
 42 51  1  0
 18 35  1  0
M  END
>  <attachment_point>  (38) 
32

>  <score>  (38) 
<NA>

$$$$
4djw
     RDKit          3D

 50 53  0  0  0  0  0  0  0  0999 V2000
   22.4950   11.8750   22.5810 C   0  0  0  0  0  0  0  0  0  0  0  0
   22.5380    9.4930   22.4640 N   0  0  0  0  0  0  0  0  0  0  0  0
   22.3600   13.0630   22.3480 O   0  0  0  0  0  0  0  0  0  0  0  0
   22.3390   10.6680   21.5610 C   0  0  0  0  0  0  0  0  0  0  0  0
   22.7860   11.3350   23.8120 N   0  0  0  0  0  0  0  0  0  0  0  0
   22.7800    9.9140   23.7010 C   0  0  0  0  0  0  0  0  0  0  0  0
   22.9970    9.1110   24.7490 N   0  0  0  0  0  0  0  0  0  0  0  0
   23.0220   12.1410   25.0180 C   0  0  0  0  0  0  0  0  0  0  0  0
   20.9020   10.6270   21.0050 C   0  0  0  0  0  0  0  0  0  0  0  0
   20.2720    9.4140   20.7470 C   0  0  0  0  0  0  0  0  0  0  0  0
   18.9690    9.3760   20.2600 C   0  0  0  0  0  0  0  0  0  0  0  0
   18.2800   10.5440   20.0210 C   0  0  0  0  0  0  0  0  0  0  0  0
   18.8920   11.7530   20.2590 C   0  0  0  0  0  0  0  0  0  0  0  0
   20.1950   11.7970   20.7440 C   0  0  0  0  0  0  0  0  0  0  0  0
   23.4880   10.6920   20.5300 C   0  0  0  0  0  0  0  0  0  0  0  0
   23.2110   10.7890   19.1730 C   0  0  0  0  0  0  0  0  0  0  0  0
   24.2350   10.8650   18.2430 C   0  0  0  0  0  0  0  0  0  0  0  0
   25.5500   10.8410   18.6560 C   0  0  0  0  0  0  0  0  0  0  0  0
   25.8710   10.7460   20.0070 C   0  0  0  0  0  0  0  0  0  0  0  0
   24.8260   10.6610   20.9430 C   0  0  0  0  0  0  0  0  0  0  0  0
    0.0000    0.0000    0.0000 H   0  0  0  0  0  0  0  0  0  0  0  0
    0.0000    0.0000    0.0000 H   0  0  0  0  0  0  0  0  0  0  0  0
    0.0000    0.0000    0.0000 H   0  0  0  0  0  0  0  0  0  0  0  0
    0.0000    0.0000    0.0000 H   0  0  0  0  0  0  0  0  0  0  0  0
    0.0000    0.0000    0.0000 H   0  0  0  0  0  0  0  0  0  0  0  0
    0.0000    0.0000    0.0000 H   0  0  0  0  0  0  0  0  0  0  0  0
    0.0000    0.0000    0.0000 H   0  0  0  0  0  0  0  0  0  0  0  0
    0.0000    0.0000    0.0000 H   0  0  0  0  0  0  0  0  0  0  0  0
    0.0000    0.0000    0.0000 H   0  0  0  0  0  0  0  0  0  0  0  0
    0.0000    0.0000    0.0000 H   0  0  0  0  0  0  0  0  0  0  0  0
    0.0000    0.0000    0.0000 H   0  0  0  0  0  0  0  0  0  0  0  0
    0.0000    0.0000    0.0000 H   0  0  0  0  0  0  0  0  0  0  0  0
    0.0000    0.0000    0.0000 H   0  0  0  0  0  0  0  0  0  0  0  0
    0.0000    0.0000    0.0000 H   0  0  0  0  0  0  0  0  0  0  0  0
   12.4224    5.2709    9.0705 N   0  0  0  0  0  0  0  0  0  0  0  0
   12.6642    3.9054    8.9232 C   0  0  0  0  0  0  0  0  0  0  0  0
   12.3602    3.2963    7.5935 C   0  0  0  0  0  0  0  0  0  0  0  0
   12.7901    4.1737    6.4463 C   0  0  0  0  0  0  0  0  0  0  0  0
   12.1663    5.5143    6.6222 C   0  0  0  0  0  0  0  0  0  0  0  0
   12.2579    6.1055    7.9683 C   0  0  0  0  0  0  0  0  0  0  0  0
   12.0371    3.3452    9.6809 H   0  0  0  0  0  0  0  0  0  0  0  0
   13.7181    3.5883    9.1836 H   0  0  0  0  0  0  0  0  0  0  0  0
   11.2833    3.1081    7.5145 H   0  0  0  0  0  0  0  0  0  0  0  0
   12.9248    2.3256    7.4926 H   0  0  0  0  0  0  0  0  0  0  0  0
   12.3338    3.7167    5.5202 H   0  0  0  0  0  0  0  0  0  0  0  0
   13.8692    4.2543    6.3215 H   0  0  0  0  0  0  0  0  0  0  0  0
   12.6155    6.1891    5.8452 H   0  0  0  0  0  0  0  0  0  0  0  0
   11.0852    5.4243    6.3077 H   0  0  0  0  0  0  0  0  0  0  0  0
   11.3218    6.7213    8.1367 H   0  0  0  0  0  0  0  0  0  0  0  0
   13.0729    6.8897    7.9442 H   0  0  0  0  0  0  0  0  0  0  0  0
  1  3  2  0
  1  4  1  0
  1  5  1  0
  2  4  1  0
  2  6  1  0
  4  9  1  0
  4 15  1  0
  5  6  1  0
  5  8  1  0
  6  7  2  3
  9 10  2  0
  9 14  1  0
 10 11  1  0
 11 12  2  0
 12 13  1  0
 13 14  2  0
 15 16  2  0
 15 20  1  0
 16 17  1  0
 17 18  2  0
 18 19  1  0
 19 20  2  0
  2 21  1  0
  7 22  1  0
  8 23  1  0
  8 24  1  0
  8 25  1  0
 10 26  1  0
 11 27  1  0
 12 28  1  0
 13 29  1  0
 14 30  1  0
 16 31  1  0
 17 32  1  0
 19 33  1  0
 20 34  1  0
 35 36  1  0
 36 37  1  0
 37 38  1  0
 38 39  1  0
 39 40  1  0
 40 35  1  0
 36 41  1  0
 36 42  1  0
 37 43  1  0
 37 44  1  0
 38 45  1  0
 38 46  1  0
 39 47  1  0
 39 48  1  0
 40 49  1  0
 40 50  1  0
 18 35  1  0
M  END
>  <attachment_point>  (39) 
32

>  <score>  (39) 
<NA>

$$$$
4djw
     RDKit          3D

 42 45  0  0  0  0  0  0  0  0999 V2000
   22.4950   11.8750   22.5810 C   0  0  0  0  0  0  0  0  0  0  0  0
   22.5380    9.4930   22.4640 N   0  0  0  0  0  0  0  0  0  0  0  0
   22.3600   13.0630   22.3480 O   0  0  0  0  0  0  0  0  0  0  0  0
   22.3390   10.6680   21.5610 C   0  0  0  0  0  0  0  0  0  0  0  0
   22.7860   11.3350   23.8120 N   0  0  0  0  0  0  0  0  0  0  0  0
   22.7800    9.9140   23.7010 C   0  0  0  0  0  0  0  0  0  0  0  0
   22.9970    9.1110   24.7490 N   0  0  0  0  0  0  0  0  0  0  0  0
   23.0220   12.1410   25.0180 C   0  0  0  0  0  0  0  0  0  0  0  0
   20.9020   10.6270   21.0050 C   0  0  0  0  0  0  0  0  0  0  0  0
   20.2720    9.4140   20.7470 C   0  0  0  0  0  0  0  0  0  0  0  0
   18.9690    9.3760   20.2600 C   0  0  0  0  0  0  0  0  0  0  0  0
   18.2800   10.5440   20.0210 C   0  0  0  0  0  0  0  0  0  0  0  0
   18.8920   11.7530   20.2590 C   0  0  0  0  0  0  0  0  0  0  0  0
   20.1950   11.7970   20.7440 C   0  0  0  0  0  0  0  0  0  0  0  0
   23.4880   10.6920   20.5300 C   0  0  0  0  0  0  0  0  0  0  0  0
   23.2110   10.7890   19.1730 C   0  0  0  0  0  0  0  0  0  0  0  0
   24.2350   10.8650   18.2430 C   0  0  0  0  0  0  0  0  0  0  0  0
   25.5500   10.8410   18.6560 C   0  0  0  0  0  0  0  0  0  0  0  0
   25.8710   10.7460   20.0070 C   0  0  0  0  0  0  0  0  0  0  0  0
   24.8260   10.6610   20.9430 C   0  0  0  0  0  0  0  0  0  0  0  0
    0.0000    0.0000    0.0000 H   0  0  0  0  0  0  0  0  0  0  0  0
    0.0000    0.0000    0.0000 H   0  0  0  0  0  0  0  0  0  0  0  0
    0.0000    0.0000    0.0000 H   0  0  0  0  0  0  0  0  0  0  0  0
    0.0000    0.0000    0.0000 H   0  0  0  0  0  0  0  0  0  0  0  0
    0.0000    0.0000    0.0000 H   0  0  0  0  0  0  0  0  0  0  0  0
    0.0000    0.0000    0.0000 H   0  0  0  0  0  0  0  0  0  0  0  0
    0.0000    0.0000    0.0000 H   0  0  0  0  0  0  0  0  0  0  0  0
    0.0000    0.0000    0.0000 H   0  0  0  0  0  0  0  0  0  0  0  0
    0.0000    0.0000    0.0000 H   0  0  0  0  0  0  0  0  0  0  0  0
    0.0000    0.0000    0.0000 H   0  0  0  0  0  0  0  0  0  0  0  0
    0.0000    0.0000    0.0000 H   0  0  0  0  0  0  0  0  0  0  0  0
    0.0000    0.0000    0.0000 H   0  0  0  0  0  0  0  0  0  0  0  0
    0.0000    0.0000    0.0000 H   0  0  0  0  0  0  0  0  0  0  0  0
    0.0000    0.0000    0.0000 H   0  0  0  0  0  0  0  0  0  0  0  0
   12.4336    5.2757    9.0787 C   0  0  0  0  0  0  0  0  0  0  0  0
   11.5541    6.1181    8.4511 C   0  0  0  0  0  0  0  0  0  0  0  0
   10.5675    5.5411    7.7288 C   0  0  0  0  0  0  0  0  0  0  0  0
   10.5432    4.1700    7.6947 C   0  0  0  0  0  0  0  0  0  0  0  0
   11.8761    3.7309    8.6562 S   0  0  0  0  0  0  0  0  0  0  0  0
   11.6511    7.2376    8.5346 H   0  0  0  0  0  0  0  0  0  0  0  0
    9.8100    6.1709    7.1869 H   0  0  0  0  0  0  0  0  0  0  0  0
    9.8014    3.5551    7.1496 H   0  0  0  0  0  0  0  0  0  0  0  0
  1  3  2  0
  1  4  1  0
  1  5  1  0
  2  4  1  0
  2  6  1  0
  4  9  1  0
  4 15  1  0
  5  6  1  0
  5  8  1  0
  6  7  2  3
  9 10  2  0
  9 14  1  0
 10 11  1  0
 11 12  2  0
 12 13  1  0
 13 14  2  0
 15 16  2  0
 15 20  1  0
 16 17  1  0
 17 18  2  0
 18 19  1  0
 19 20  2  0
  2 21  1  0
  7 22  1  0
  8 23  1  0
  8 24  1  0
  8 25  1  0
 10 26  1  0
 11 27  1  0
 12 28  1  0
 13 29  1  0
 14 30  1  0
 16 31  1  0
 17 32  1  0
 19 33  1  0
 20 34  1  0
 35 36  2  0
 36 37  1  0
 37 38  2  0
 38 39  1  0
 39 35  1  0
 36 40  1  0
 37 41  1  0
 38 42  1  0
 18 35  1  0
M  END
>  <attachment_point>  (40) 
32

>  <score>  (40) 
<NA>

$$$$
4djw
     RDKit          3D

 42 45  0  0  0  0  0  0  0  0999 V2000
   22.4950   11.8750   22.5810 C   0  0  0  0  0  0  0  0  0  0  0  0
   22.5380    9.4930   22.4640 N   0  0  0  0  0  0  0  0  0  0  0  0
   22.3600   13.0630   22.3480 O   0  0  0  0  0  0  0  0  0  0  0  0
   22.3390   10.6680   21.5610 C   0  0  0  0  0  0  0  0  0  0  0  0
   22.7860   11.3350   23.8120 N   0  0  0  0  0  0  0  0  0  0  0  0
   22.7800    9.9140   23.7010 C   0  0  0  0  0  0  0  0  0  0  0  0
   22.9970    9.1110   24.7490 N   0  0  0  0  0  0  0  0  0  0  0  0
   23.0220   12.1410   25.0180 C   0  0  0  0  0  0  0  0  0  0  0  0
   20.9020   10.6270   21.0050 C   0  0  0  0  0  0  0  0  0  0  0  0
   20.2720    9.4140   20.7470 C   0  0  0  0  0  0  0  0  0  0  0  0
   18.9690    9.3760   20.2600 C   0  0  0  0  0  0  0  0  0  0  0  0
   18.2800   10.5440   20.0210 C   0  0  0  0  0  0  0  0  0  0  0  0
   18.8920   11.7530   20.2590 C   0  0  0  0  0  0  0  0  0  0  0  0
   20.1950   11.7970   20.7440 C   0  0  0  0  0  0  0  0  0  0  0  0
   23.4880   10.6920   20.5300 C   0  0  0  0  0  0  0  0  0  0  0  0
   23.2110   10.7890   19.1730 C   0  0  0  0  0  0  0  0  0  0  0  0
   24.2350   10.8650   18.2430 C   0  0  0  0  0  0  0  0  0  0  0  0
   25.5500   10.8410   18.6560 C   0  0  0  0  0  0  0  0  0  0  0  0
   25.8710   10.7460   20.0070 C   0  0  0  0  0  0  0  0  0  0  0  0
   24.8260   10.6610   20.9430 C   0  0  0  0  0  0  0  0  0  0  0  0
    0.0000    0.0000    0.0000 H   0  0  0  0  0  0  0  0  0  0  0  0
    0.0000    0.0000    0.0000 H   0  0  0  0  0  0  0  0  0  0  0  0
    0.0000    0.0000    0.0000 H   0  0  0  0  0  0  0  0  0  0  0  0
    0.0000    0.0000    0.0000 H   0  0  0  0  0  0  0  0  0  0  0  0
    0.0000    0.0000    0.0000 H   0  0  0  0  0  0  0  0  0  0  0  0
    0.0000    0.0000    0.0000 H   0  0  0  0  0  0  0  0  0  0  0  0
    0.0000    0.0000    0.0000 H   0  0  0  0  0  0  0  0  0  0  0  0
    0.0000    0.0000    0.0000 H   0  0  0  0  0  0  0  0  0  0  0  0
    0.0000    0.0000    0.0000 H   0  0  0  0  0  0  0  0  0  0  0  0
    0.0000    0.0000    0.0000 H   0  0  0  0  0  0  0  0  0  0  0  0
    0.0000    0.0000    0.0000 H   0  0  0  0  0  0  0  0  0  0  0  0
    0.0000    0.0000    0.0000 H   0  0  0  0  0  0  0  0  0  0  0  0
    0.0000    0.0000    0.0000 H   0  0  0  0  0  0  0  0  0  0  0  0
    0.0000    0.0000    0.0000 H   0  0  0  0  0  0  0  0  0  0  0  0
   12.4482    5.2818    9.0894 C   0  0  0  0  0  0  0  0  0  0  0  0
   12.6615    4.0534    8.3064 C   0  0  0  0  0  0  0  0  0  0  0  0
   12.5785    5.3436    7.5726 C   0  0  0  0  0  0  0  0  0  0  0  0
   11.4750    5.5771    9.5024 H   0  0  0  0  0  0  0  0  0  0  0  0
   11.8804    3.2873    8.1650 H   0  0  0  0  0  0  0  0  0  0  0  0
   13.6883    3.6070    8.3282 H   0  0  0  0  0  0  0  0  0  0  0  0
   13.4623    5.8904    7.2329 H   0  0  0  0  0  0  0  0  0  0  0  0
   11.6545    5.5098    6.9937 H   0  0  0  0  0  0  0  0  0  0  0  0
  1  3  2  0
  1  4  1  0
  1  5  1  0
  2  4  1  0
  2  6  1  0
  4  9  1  0
  4 15  1  0
  5  6  1  0
  5  8  1  0
  6  7  2  3
  9 10  2  0
  9 14  1  0
 10 11  1  0
 11 12  2  0
 12 13  1  0
 13 14  2  0
 15 16  2  0
 15 20  1  0
 16 17  1  0
 17 18  2  0
 18 19  1  0
 19 20  2  0
  2 21  1  0
  7 22  1  0
  8 23  1  0
  8 24  1  0
  8 25  1  0
 10 26  1  0
 11 27  1  0
 12 28  1  0
 13 29  1  0
 14 30  1  0
 16 31  1  0
 17 32  1  0
 19 33  1  0
 20 34  1  0
 35 36  1  0
 36 37  1  0
 37 35  1  0
 35 38  1  0
 36 39  1  0
 36 40  1  0
 37 41  1  0
 37 42  1  0
 18 35  1  0
M  END
>  <attachment_point>  (41) 
32

>  <score>  (41) 
<NA>

$$$$
4djw
     RDKit          3D

 48 51  0  0  0  0  0  0  0  0999 V2000
   22.4950   11.8750   22.5810 C   0  0  0  0  0  0  0  0  0  0  0  0
   22.5380    9.4930   22.4640 N   0  0  0  0  0  0  0  0  0  0  0  0
   22.3600   13.0630   22.3480 O   0  0  0  0  0  0  0  0  0  0  0  0
   22.3390   10.6680   21.5610 C   0  0  0  0  0  0  0  0  0  0  0  0
   22.7860   11.3350   23.8120 N   0  0  0  0  0  0  0  0  0  0  0  0
   22.7800    9.9140   23.7010 C   0  0  0  0  0  0  0  0  0  0  0  0
   22.9970    9.1110   24.7490 N   0  0  0  0  0  0  0  0  0  0  0  0
   23.0220   12.1410   25.0180 C   0  0  0  0  0  0  0  0  0  0  0  0
   20.9020   10.6270   21.0050 C   0  0  0  0  0  0  0  0  0  0  0  0
   20.2720    9.4140   20.7470 C   0  0  0  0  0  0  0  0  0  0  0  0
   18.9690    9.3760   20.2600 C   0  0  0  0  0  0  0  0  0  0  0  0
   18.2800   10.5440   20.0210 C   0  0  0  0  0  0  0  0  0  0  0  0
   18.8920   11.7530   20.2590 C   0  0  0  0  0  0  0  0  0  0  0  0
   20.1950   11.7970   20.7440 C   0  0  0  0  0  0  0  0  0  0  0  0
   23.4880   10.6920   20.5300 C   0  0  0  0  0  0  0  0  0  0  0  0
   23.2110   10.7890   19.1730 C   0  0  0  0  0  0  0  0  0  0  0  0
   24.2350   10.8650   18.2430 C   0  0  0  0  0  0  0  0  0  0  0  0
   25.5500   10.8410   18.6560 C   0  0  0  0  0  0  0  0  0  0  0  0
   25.8710   10.7460   20.0070 C   0  0  0  0  0  0  0  0  0  0  0  0
   24.8260   10.6610   20.9430 C   0  0  0  0  0  0  0  0  0  0  0  0
    0.0000    0.0000    0.0000 H   0  0  0  0  0  0  0  0  0  0  0  0
    0.0000    0.0000    0.0000 H   0  0  0  0  0  0  0  0  0  0  0  0
    0.0000    0.0000    0.0000 H   0  0  0  0  0  0  0  0  0  0  0  0
    0.0000    0.0000    0.0000 H   0  0  0  0  0  0  0  0  0  0  0  0
    0.0000    0.0000    0.0000 H   0  0  0  0  0  0  0  0  0  0  0  0
    0.0000    0.0000    0.0000 H   0  0  0  0  0  0  0  0  0  0  0  0
    0.0000    0.0000    0.0000 H   0  0  0  0  0  0  0  0  0  0  0  0
    0.0000    0.0000    0.0000 H   0  0  0  0  0  0  0  0  0  0  0  0
    0.0000    0.0000    0.0000 H   0  0  0  0  0  0  0  0  0  0  0  0
    0.0000    0.0000    0.0000 H   0  0  0  0  0  0  0  0  0  0  0  0
    0.0000    0.0000    0.0000 H   0  0  0  0  0  0  0  0  0  0  0  0
    0.0000    0.0000    0.0000 H   0  0  0  0  0  0  0  0  0  0  0  0
    0.0000    0.0000    0.0000 H   0  0  0  0  0  0  0  0  0  0  0  0
    0.0000    0.0000    0.0000 H   0  0  0  0  0  0  0  0  0  0  0  0
   12.3844    5.2548    9.0428 C   0  0  0  0  0  0  0  0  0  0  0  0
   12.6565    4.6545    7.8847 C   0  0  0  0  0  0  0  0  0  0  0  0
   11.5629    4.2097    7.1227 C   0  0  0  0  0  0  0  0  0  0  0  0
   10.2788    4.3922    7.5637 C   0  0  0  0  0  0  0  0  0  0  0  0
    9.1326    3.9130    6.7402 C   0  0  0  0  0  0  0  0  0  0  0  0
   10.0336    5.0152    8.7628 C   0  0  0  0  0  0  0  0  0  0  0  0
   11.1501    5.4560    9.5158 C   0  0  0  0  0  0  0  0  0  0  0  0
   13.6616    4.4977    7.5132 H   0  0  0  0  0  0  0  0  0  0  0  0
   11.7152    3.7168    6.1771 H   0  0  0  0  0  0  0  0  0  0  0  0
    8.3920    3.3427    7.3500 H   0  0  0  0  0  0  0  0  0  0  0  0
    8.6249    4.7518    6.2229 H   0  0  0  0  0  0  0  0  0  0  0  0
    9.5256    3.1974    5.9678 H   0  0  0  0  0  0  0  0  0  0  0  0
    9.0371    5.1589    9.1090 H   0  0  0  0  0  0  0  0  0  0  0  0
   10.9568    5.9466   10.4599 H   0  0  0  0  0  0  0  0  0  0  0  0
  1  3  2  0
  1  4  1  0
  1  5  1  0
  2  4  1  0
  2  6  1  0
  4  9  1  0
  4 15  1  0
  5  6  1  0
  5  8  1  0
  6  7  2  3
  9 10  2  0
  9 14  1  0
 10 11  1  0
 11 12  2  0
 12 13  1  0
 13 14  2  0
 15 16  2  0
 15 20  1  0
 16 17  1  0
 17 18  2  0
 18 19  1  0
 19 20  2  0
  2 21  1  0
  7 22  1  0
  8 23  1  0
  8 24  1  0
  8 25  1  0
 10 26  1  0
 11 27  1  0
 12 28  1  0
 13 29  1  0
 14 30  1  0
 16 31  1  0
 17 32  1  0
 19 33  1  0
 20 34  1  0
 35 36  2  0
 36 37  1  0
 37 38  2  0
 38 39  1  0
 38 40  1  0
 40 41  2  0
 41 35  1  0
 36 42  1  0
 37 43  1  0
 39 44  1  0
 39 45  1  0
 39 46  1  0
 40 47  1  0
 41 48  1  0
 18 35  1  0
M  END
>  <attachment_point>  (42) 
32

>  <score>  (42) 
<NA>

$$$$
4djw
     RDKit          3D

 46 49  0  0  0  0  0  0  0  0999 V2000
   22.4950   11.8750   22.5810 C   0  0  0  0  0  0  0  0  0  0  0  0
   22.5380    9.4930   22.4640 N   0  0  0  0  0  0  0  0  0  0  0  0
   22.3600   13.0630   22.3480 O   0  0  0  0  0  0  0  0  0  0  0  0
   22.3390   10.6680   21.5610 C   0  0  0  0  0  0  0  0  0  0  0  0
   22.7860   11.3350   23.8120 N   0  0  0  0  0  0  0  0  0  0  0  0
   22.7800    9.9140   23.7010 C   0  0  0  0  0  0  0  0  0  0  0  0
   22.9970    9.1110   24.7490 N   0  0  0  0  0  0  0  0  0  0  0  0
   23.0220   12.1410   25.0180 C   0  0  0  0  0  0  0  0  0  0  0  0
   20.9020   10.6270   21.0050 C   0  0  0  0  0  0  0  0  0  0  0  0
   20.2720    9.4140   20.7470 C   0  0  0  0  0  0  0  0  0  0  0  0
   18.9690    9.3760   20.2600 C   0  0  0  0  0  0  0  0  0  0  0  0
   18.2800   10.5440   20.0210 C   0  0  0  0  0  0  0  0  0  0  0  0
   18.8920   11.7530   20.2590 C   0  0  0  0  0  0  0  0  0  0  0  0
   20.1950   11.7970   20.7440 C   0  0  0  0  0  0  0  0  0  0  0  0
   23.4880   10.6920   20.5300 C   0  0  0  0  0  0  0  0  0  0  0  0
   23.2110   10.7890   19.1730 C   0  0  0  0  0  0  0  0  0  0  0  0
   24.2350   10.8650   18.2430 C   0  0  0  0  0  0  0  0  0  0  0  0
   25.5500   10.8410   18.6560 C   0  0  0  0  0  0  0  0  0  0  0  0
   25.8710   10.7460   20.0070 C   0  0  0  0  0  0  0  0  0  0  0  0
   24.8260   10.6610   20.9430 C   0  0  0  0  0  0  0  0  0  0  0  0
    0.0000    0.0000    0.0000 H   0  0  0  0  0  0  0  0  0  0  0  0
    0.0000    0.0000    0.0000 H   0  0  0  0  0  0  0  0  0  0  0  0
    0.0000    0.0000    0.0000 H   0  0  0  0  0  0  0  0  0  0  0  0
    0.0000    0.0000    0.0000 H   0  0  0  0  0  0  0  0  0  0  0  0
    0.0000    0.0000    0.0000 H   0  0  0  0  0  0  0  0  0  0  0  0
    0.0000    0.0000    0.0000 H   0  0  0  0  0  0  0  0  0  0  0  0
    0.0000    0.0000    0.0000 H   0  0  0  0  0  0  0  0  0  0  0  0
    0.0000    0.0000    0.0000 H   0  0  0  0  0  0  0  0  0  0  0  0
    0.0000    0.0000    0.0000 H   0  0  0  0  0  0  0  0  0  0  0  0
    0.0000    0.0000    0.0000 H   0  0  0  0  0  0  0  0  0  0  0  0
    0.0000    0.0000    0.0000 H   0  0  0  0  0  0  0  0  0  0  0  0
    0.0000    0.0000    0.0000 H   0  0  0  0  0  0  0  0  0  0  0  0
    0.0000    0.0000    0.0000 H   0  0  0  0  0  0  0  0  0  0  0  0
    0.0000    0.0000    0.0000 H   0  0  0  0  0  0  0  0  0  0  0  0
   12.3419    5.2367    9.0118 O   0  0  0  0  0  0  0  0  0  0  0  0
   11.5556    4.6662   10.0261 C   0  0  0  0  0  0  0  0  0  0  0  0
   10.4995    5.3758   10.5243 C   0  0  0  0  0  0  0  0  0  0  0  0
    9.7252    4.8183   11.5207 C   0  0  0  0  0  0  0  0  0  0  0  0
   10.0196    3.5678   11.9986 C   0  0  0  0  0  0  0  0  0  0  0  0
   11.0870    2.8165   11.5152 C   0  0  0  0  0  0  0  0  0  0  0  0
   11.8430    3.4002   10.5192 C   0  0  0  0  0  0  0  0  0  0  0  0
   10.2573    6.3744   10.1489 H   0  0  0  0  0  0  0  0  0  0  0  0
    8.8783    5.3849   11.9213 H   0  0  0  0  0  0  0  0  0  0  0  0
    9.4180    3.1295   12.7758 H   0  0  0  0  0  0  0  0  0  0  0  0
   11.2951    1.8357   11.9099 H   0  0  0  0  0  0  0  0  0  0  0  0
   12.6882    2.8620   10.1034 H   0  0  0  0  0  0  0  0  0  0  0  0
  1  3  2  0
  1  4  1  0
  1  5  1  0
  2  4  1  0
  2  6  1  0
  4  9  1  0
  4 15  1  0
  5  6  1  0
  5  8  1  0
  6  7  2  3
  9 10  2  0
  9 14  1  0
 10 11  1  0
 11 12  2  0
 12 13  1  0
 13 14  2  0
 15 16  2  0
 15 20  1  0
 16 17  1  0
 17 18  2  0
 18 19  1  0
 19 20  2  0
  2 21  1  0
  7 22  1  0
  8 23  1  0
  8 24  1  0
  8 25  1  0
 10 26  1  0
 11 27  1  0
 12 28  1  0
 13 29  1  0
 14 30  1  0
 16 31  1  0
 17 32  1  0
 19 33  1  0
 20 34  1  0
 35 36  1  0
 36 37  2  0
 37 38  1  0
 38 39  2  0
 39 40  1  0
 40 41  2  0
 41 36  1  0
 37 42  1  0
 38 43  1  0
 39 44  1  0
 40 45  1  0
 41 46  1  0
 18 35  1  0
M  END
>  <attachment_point>  (43) 
32

>  <score>  (43) 
<NA>

$$$$
4djw
     RDKit          3D

 46 49  0  0  0  0  0  0  0  0999 V2000
   22.4950   11.8750   22.5810 C   0  0  0  0  0  0  0  0  0  0  0  0
   22.5380    9.4930   22.4640 N   0  0  0  0  0  0  0  0  0  0  0  0
   22.3600   13.0630   22.3480 O   0  0  0  0  0  0  0  0  0  0  0  0
   22.3390   10.6680   21.5610 C   0  0  0  0  0  0  0  0  0  0  0  0
   22.7860   11.3350   23.8120 N   0  0  0  0  0  0  0  0  0  0  0  0
   22.7800    9.9140   23.7010 C   0  0  0  0  0  0  0  0  0  0  0  0
   22.9970    9.1110   24.7490 N   0  0  0  0  0  0  0  0  0  0  0  0
   23.0220   12.1410   25.0180 C   0  0  0  0  0  0  0  0  0  0  0  0
   20.9020   10.6270   21.0050 C   0  0  0  0  0  0  0  0  0  0  0  0
   20.2720    9.4140   20.7470 C   0  0  0  0  0  0  0  0  0  0  0  0
   18.9690    9.3760   20.2600 C   0  0  0  0  0  0  0  0  0  0  0  0
   18.2800   10.5440   20.0210 C   0  0  0  0  0  0  0  0  0  0  0  0
   18.8920   11.7530   20.2590 C   0  0  0  0  0  0  0  0  0  0  0  0
   20.1950   11.7970   20.7440 C   0  0  0  0  0  0  0  0  0  0  0  0
   23.4880   10.6920   20.5300 C   0  0  0  0  0  0  0  0  0  0  0  0
   23.2110   10.7890   19.1730 C   0  0  0  0  0  0  0  0  0  0  0  0
   24.2350   10.8650   18.2430 C   0  0  0  0  0  0  0  0  0  0  0  0
   25.5500   10.8410   18.6560 C   0  0  0  0  0  0  0  0  0  0  0  0
   25.8710   10.7460   20.0070 C   0  0  0  0  0  0  0  0  0  0  0  0
   24.8260   10.6610   20.9430 C   0  0  0  0  0  0  0  0  0  0  0  0
    0.0000    0.0000    0.0000 H   0  0  0  0  0  0  0  0  0  0  0  0
    0.0000    0.0000    0.0000 H   0  0  0  0  0  0  0  0  0  0  0  0
    0.0000    0.0000    0.0000 H   0  0  0  0  0  0  0  0  0  0  0  0
    0.0000    0.0000    0.0000 H   0  0  0  0  0  0  0  0  0  0  0  0
    0.0000    0.0000    0.0000 H   0  0  0  0  0  0  0  0  0  0  0  0
    0.0000    0.0000    0.0000 H   0  0  0  0  0  0  0  0  0  0  0  0
    0.0000    0.0000    0.0000 H   0  0  0  0  0  0  0  0  0  0  0  0
    0.0000    0.0000    0.0000 H   0  0  0  0  0  0  0  0  0  0  0  0
    0.0000    0.0000    0.0000 H   0  0  0  0  0  0  0  0  0  0  0  0
    0.0000    0.0000    0.0000 H   0  0  0  0  0  0  0  0  0  0  0  0
    0.0000    0.0000    0.0000 H   0  0  0  0  0  0  0  0  0  0  0  0
    0.0000    0.0000    0.0000 H   0  0  0  0  0  0  0  0  0  0  0  0
    0.0000    0.0000    0.0000 H   0  0  0  0  0  0  0  0  0  0  0  0
    0.0000    0.0000    0.0000 H   0  0  0  0  0  0  0  0  0  0  0  0
   12.4375    5.2773    9.0815 C   0  0  0  0  0  0  0  0  0  0  0  0
   11.5301    6.1810    8.5606 C   0  0  0  0  0  0  0  0  0  0  0  0
   10.4899    5.6997    7.7967 C   0  0  0  0  0  0  0  0  0  0  0  0
   10.3283    4.3772    7.5411 C   0  0  0  0  0  0  0  0  0  0  0  0
    9.2689    3.8901    6.7634 O   0  0  0  0  0  0  0  0  0  0  0  0
   11.2172    3.4605    8.0479 C   0  0  0  0  0  0  0  0  0  0  0  0
   12.2611    3.9391    8.8141 C   0  0  0  0  0  0  0  0  0  0  0  0
   11.6661    7.2337    8.7692 H   0  0  0  0  0  0  0  0  0  0  0  0
    9.7849    6.4167    7.3936 H   0  0  0  0  0  0  0  0  0  0  0  0
    8.5726    3.3496    7.3004 H   0  0  0  0  0  0  0  0  0  0  0  0
   11.1068    2.3829    7.8541 H   0  0  0  0  0  0  0  0  0  0  0  0
   12.9770    3.2235    9.2248 H   0  0  0  0  0  0  0  0  0  0  0  0
  1  3  2  0
  1  4  1  0
  1  5  1  0
  2  4  1  0
  2  6  1  0
  4  9  1  0
  4 15  1  0
  5  6  1  0
  5  8  1  0
  6  7  2  3
  9 10  2  0
  9 14  1  0
 10 11  1  0
 11 12  2  0
 12 13  1  0
 13 14  2  0
 15 16  2  0
 15 20  1  0
 16 17  1  0
 17 18  2  0
 18 19  1  0
 19 20  2  0
  2 21  1  0
  7 22  1  0
  8 23  1  0
  8 24  1  0
  8 25  1  0
 10 26  1  0
 11 27  1  0
 12 28  1  0
 13 29  1  0
 14 30  1  0
 16 31  1  0
 17 32  1  0
 19 33  1  0
 20 34  1  0
 35 36  2  0
 36 37  1  0
 37 38  2  0
 38 39  1  0
 38 40  1  0
 40 41  2  0
 41 35  1  0
 36 42  1  0
 37 43  1  0
 39 44  1  0
 40 45  1  0
 41 46  1  0
 18 35  1  0
M  END
>  <attachment_point>  (44) 
32

>  <score>  (44) 
<NA>

$$$$
4djw
     RDKit          3D

 47 50  0  0  0  0  0  0  0  0999 V2000
   22.4950   11.8750   22.5810 C   0  0  0  0  0  0  0  0  0  0  0  0
   22.5380    9.4930   22.4640 N   0  0  0  0  0  0  0  0  0  0  0  0
   22.3600   13.0630   22.3480 O   0  0  0  0  0  0  0  0  0  0  0  0
   22.3390   10.6680   21.5610 C   0  0  0  0  0  0  0  0  0  0  0  0
   22.7860   11.3350   23.8120 N   0  0  0  0  0  0  0  0  0  0  0  0
   22.7800    9.9140   23.7010 C   0  0  0  0  0  0  0  0  0  0  0  0
   22.9970    9.1110   24.7490 N   0  0  0  0  0  0  0  0  0  0  0  0
   23.0220   12.1410   25.0180 C   0  0  0  0  0  0  0  0  0  0  0  0
   20.9020   10.6270   21.0050 C   0  0  0  0  0  0  0  0  0  0  0  0
   20.2720    9.4140   20.7470 C   0  0  0  0  0  0  0  0  0  0  0  0
   18.9690    9.3760   20.2600 C   0  0  0  0  0  0  0  0  0  0  0  0
   18.2800   10.5440   20.0210 C   0  0  0  0  0  0  0  0  0  0  0  0
   18.8920   11.7530   20.2590 C   0  0  0  0  0  0  0  0  0  0  0  0
   20.1950   11.7970   20.7440 C   0  0  0  0  0  0  0  0  0  0  0  0
   23.4880   10.6920   20.5300 C   0  0  0  0  0  0  0  0  0  0  0  0
   23.2110   10.7890   19.1730 C   0  0  0  0  0  0  0  0  0  0  0  0
   24.2350   10.8650   18.2430 C   0  0  0  0  0  0  0  0  0  0  0  0
   25.5500   10.8410   18.6560 C   0  0  0  0  0  0  0  0  0  0  0  0
   25.8710   10.7460   20.0070 C   0  0  0  0  0  0  0  0  0  0  0  0
   24.8260   10.6610   20.9430 C   0  0  0  0  0  0  0  0  0  0  0  0
    0.0000    0.0000    0.0000 H   0  0  0  0  0  0  0  0  0  0  0  0
    0.0000    0.0000    0.0000 H   0  0  0  0  0  0  0  0  0  0  0  0
    0.0000    0.0000    0.0000 H   0  0  0  0  0  0  0  0  0  0  0  0
    0.0000    0.0000    0.0000 H   0  0  0  0  0  0  0  0  0  0  0  0
    0.0000    0.0000    0.0000 H   0  0  0  0  0  0  0  0  0  0  0  0
    0.0000    0.0000    0.0000 H   0  0  0  0  0  0  0  0  0  0  0  0
    0.0000    0.0000    0.0000 H   0  0  0  0  0  0  0  0  0  0  0  0
    0.0000    0.0000    0.0000 H   0  0  0  0  0  0  0  0  0  0  0  0
    0.0000    0.0000    0.0000 H   0  0  0  0  0  0  0  0  0  0  0  0
    0.0000    0.0000    0.0000 H   0  0  0  0  0  0  0  0  0  0  0  0
    0.0000    0.0000    0.0000 H   0  0  0  0  0  0  0  0  0  0  0  0
    0.0000    0.0000    0.0000 H   0  0  0  0  0  0  0  0  0  0  0  0
    0.0000    0.0000    0.0000 H   0  0  0  0  0  0  0  0  0  0  0  0
    0.0000    0.0000    0.0000 H   0  0  0  0  0  0  0  0  0  0  0  0
   12.4592    5.2865    9.0974 N   0  0  0  0  0  0  0  0  0  0  0  0
   11.1410    5.4302    9.5433 C   0  0  0  0  0  0  0  0  0  0  0  0
   10.8269    6.0150   10.7526 C   0  0  0  0  0  0  0  0  0  0  0  0
    9.5347    6.1501   11.1782 C   0  0  0  0  0  0  0  0  0  0  0  0
    8.4923    5.6967   10.3948 C   0  0  0  0  0  0  0  0  0  0  0  0
    8.8147    5.1174    9.1957 C   0  0  0  0  0  0  0  0  0  0  0  0
   10.1058    4.9633    8.7322 C   0  0  0  0  0  0  0  0  0  0  0  0
   12.7315    4.8540    8.1984 H   0  0  0  0  0  0  0  0  0  0  0  0
   11.6800    6.3621   11.3455 H   0  0  0  0  0  0  0  0  0  0  0  0
    9.3453    6.6178   12.1376 H   0  0  0  0  0  0  0  0  0  0  0  0
    7.4695    5.8141   10.7527 H   0  0  0  0  0  0  0  0  0  0  0  0
    7.9948    4.7631    8.5841 H   0  0  0  0  0  0  0  0  0  0  0  0
   10.2806    4.5014    7.7860 H   0  0  0  0  0  0  0  0  0  0  0  0
  1  3  2  0
  1  4  1  0
  1  5  1  0
  2  4  1  0
  2  6  1  0
  4  9  1  0
  4 15  1  0
  5  6  1  0
  5  8  1  0
  6  7  2  3
  9 10  2  0
  9 14  1  0
 10 11  1  0
 11 12  2  0
 12 13  1  0
 13 14  2  0
 15 16  2  0
 15 20  1  0
 16 17  1  0
 17 18  2  0
 18 19  1  0
 19 20  2  0
  2 21  1  0
  7 22  1  0
  8 23  1  0
  8 24  1  0
  8 25  1  0
 10 26  1  0
 11 27  1  0
 12 28  1  0
 13 29  1  0
 14 30  1  0
 16 31  1  0
 17 32  1  0
 19 33  1  0
 20 34  1  0
 35 36  1  0
 36 37  2  0
 37 38  1  0
 38 39  2  0
 39 40  1  0
 40 41  2  0
 41 36  1  0
 35 42  1  0
 37 43  1  0
 38 44  1  0
 39 45  1  0
 40 46  1  0
 41 47  1  0
 18 35  1  0
M  END
>  <attachment_point>  (45) 
32

>  <score>  (45) 
<NA>

$$$$
4djw
     RDKit          3D

 41 43  0  0  0  0  0  0  0  0999 V2000
   22.4950   11.8750   22.5810 C   0  0  0  0  0  0  0  0  0  0  0  0
   22.5380    9.4930   22.4640 N   0  0  0  0  0  0  0  0  0  0  0  0
   22.3600   13.0630   22.3480 O   0  0  0  0  0  0  0  0  0  0  0  0
   22.3390   10.6680   21.5610 C   0  0  0  0  0  0  0  0  0  0  0  0
   22.7860   11.3350   23.8120 N   0  0  0  0  0  0  0  0  0  0  0  0
   22.7800    9.9140   23.7010 C   0  0  0  0  0  0  0  0  0  0  0  0
   22.9970    9.1110   24.7490 N   0  0  0  0  0  0  0  0  0  0  0  0
   23.0220   12.1410   25.0180 C   0  0  0  0  0  0  0  0  0  0  0  0
   20.9020   10.6270   21.0050 C   0  0  0  0  0  0  0  0  0  0  0  0
   20.2720    9.4140   20.7470 C   0  0  0  0  0  0  0  0  0  0  0  0
   18.9690    9.3760   20.2600 C   0  0  0  0  0  0  0  0  0  0  0  0
   18.2800   10.5440   20.0210 C   0  0  0  0  0  0  0  0  0  0  0  0
   18.8920   11.7530   20.2590 C   0  0  0  0  0  0  0  0  0  0  0  0
   20.1950   11.7970   20.7440 C   0  0  0  0  0  0  0  0  0  0  0  0
   23.4880   10.6920   20.5300 C   0  0  0  0  0  0  0  0  0  0  0  0
   23.2110   10.7890   19.1730 C   0  0  0  0  0  0  0  0  0  0  0  0
   24.2350   10.8650   18.2430 C   0  0  0  0  0  0  0  0  0  0  0  0
   25.5500   10.8410   18.6560 C   0  0  0  0  0  0  0  0  0  0  0  0
   25.8710   10.7460   20.0070 C   0  0  0  0  0  0  0  0  0  0  0  0
   24.8260   10.6610   20.9430 C   0  0  0  0  0  0  0  0  0  0  0  0
    0.0000    0.0000    0.0000 H   0  0  0  0  0  0  0  0  0  0  0  0
    0.0000    0.0000    0.0000 H   0  0  0  0  0  0  0  0  0  0  0  0
    0.0000    0.0000    0.0000 H   0  0  0  0  0  0  0  0  0  0  0  0
    0.0000    0.0000    0.0000 H   0  0  0  0  0  0  0  0  0  0  0  0
    0.0000    0.0000    0.0000 H   0  0  0  0  0  0  0  0  0  0  0  0
    0.0000    0.0000    0.0000 H   0  0  0  0  0  0  0  0  0  0  0  0
    0.0000    0.0000    0.0000 H   0  0  0  0  0  0  0  0  0  0  0  0
    0.0000    0.0000    0.0000 H   0  0  0  0  0  0  0  0  0  0  0  0
    0.0000    0.0000    0.0000 H   0  0  0  0  0  0  0  0  0  0  0  0
    0.0000    0.0000    0.0000 H   0  0  0  0  0  0  0  0  0  0  0  0
    0.0000    0.0000    0.0000 H   0  0  0  0  0  0  0  0  0  0  0  0
    0.0000    0.0000    0.0000 H   0  0  0  0  0  0  0  0  0  0  0  0
    0.0000    0.0000    0.0000 H   0  0  0  0  0  0  0  0  0  0  0  0
    0.0000    0.0000    0.0000 H   0  0  0  0  0  0  0  0  0  0  0  0
   12.4331    5.2754    9.0783 S   0  0  0  0  0  6  0  0  0  0  0  0
   12.9905    4.7284    7.5041 C   0  0  0  0  0  0  0  0  0  0  0  0
   11.5213    6.4777    8.9179 O   0  0  0  0  0  0  0  0  0  0  0  0
   11.6267    4.2417    9.8082 O   0  0  0  0  0  0  0  0  0  0  0  0
   12.6148    5.4257    6.7080 H   0  0  0  0  0  0  0  0  0  0  0  0
   12.5816    3.7273    7.2216 H   0  0  0  0  0  0  0  0  0  0  0  0
   14.1054    4.7572    7.3980 H   0  0  0  0  0  0  0  0  0  0  0  0
  1  3  2  0
  1  4  1  0
  1  5  1  0
  2  4  1  0
  2  6  1  0
  4  9  1  0
  4 15  1  0
  5  6  1  0
  5  8  1  0
  6  7  2  3
  9 10  2  0
  9 14  1  0
 10 11  1  0
 11 12  2  0
 12 13  1  0
 13 14  2  0
 15 16  2  0
 15 20  1  0
 16 17  1  0
 17 18  2  0
 18 19  1  0
 19 20  2  0
  2 21  1  0
  7 22  1  0
  8 23  1  0
  8 24  1  0
  8 25  1  0
 10 26  1  0
 11 27  1  0
 12 28  1  0
 13 29  1  0
 14 30  1  0
 16 31  1  0
 17 32  1  0
 19 33  1  0
 20 34  1  0
 35 36  1  0
 35 37  2  0
 35 38  2  0
 36 39  1  0
 36 40  1  0
 36 41  1  0
 18 35  1  0
M  END
>  <attachment_point>  (46) 
32

>  <score>  (46) 
<NA>

$$$$
4djw
     RDKit          3D

 49 52  0  0  0  0  0  0  0  0999 V2000
   22.4950   11.8750   22.5810 C   0  0  0  0  0  0  0  0  0  0  0  0
   22.5380    9.4930   22.4640 N   0  0  0  0  0  0  0  0  0  0  0  0
   22.3600   13.0630   22.3480 O   0  0  0  0  0  0  0  0  0  0  0  0
   22.3390   10.6680   21.5610 C   0  0  0  0  0  0  0  0  0  0  0  0
   22.7860   11.3350   23.8120 N   0  0  0  0  0  0  0  0  0  0  0  0
   22.7800    9.9140   23.7010 C   0  0  0  0  0  0  0  0  0  0  0  0
   22.9970    9.1110   24.7490 N   0  0  0  0  0  0  0  0  0  0  0  0
   23.0220   12.1410   25.0180 C   0  0  0  0  0  0  0  0  0  0  0  0
   20.9020   10.6270   21.0050 C   0  0  0  0  0  0  0  0  0  0  0  0
   20.2720    9.4140   20.7470 C   0  0  0  0  0  0  0  0  0  0  0  0
   18.9690    9.3760   20.2600 C   0  0  0  0  0  0  0  0  0  0  0  0
   18.2800   10.5440   20.0210 C   0  0  0  0  0  0  0  0  0  0  0  0
   18.8920   11.7530   20.2590 C   0  0  0  0  0  0  0  0  0  0  0  0
   20.1950   11.7970   20.7440 C   0  0  0  0  0  0  0  0  0  0  0  0
   23.4880   10.6920   20.5300 C   0  0  0  0  0  0  0  0  0  0  0  0
   23.2110   10.7890   19.1730 C   0  0  0  0  0  0  0  0  0  0  0  0
   24.2350   10.8650   18.2430 C   0  0  0  0  0  0  0  0  0  0  0  0
   25.5500   10.8410   18.6560 C   0  0  0  0  0  0  0  0  0  0  0  0
   25.8710   10.7460   20.0070 C   0  0  0  0  0  0  0  0  0  0  0  0
   24.8260   10.6610   20.9430 C   0  0  0  0  0  0  0  0  0  0  0  0
    0.0000    0.0000    0.0000 H   0  0  0  0  0  0  0  0  0  0  0  0
    0.0000    0.0000    0.0000 H   0  0  0  0  0  0  0  0  0  0  0  0
    0.0000    0.0000    0.0000 H   0  0  0  0  0  0  0  0  0  0  0  0
    0.0000    0.0000    0.0000 H   0  0  0  0  0  0  0  0  0  0  0  0
    0.0000    0.0000    0.0000 H   0  0  0  0  0  0  0  0  0  0  0  0
    0.0000    0.0000    0.0000 H   0  0  0  0  0  0  0  0  0  0  0  0
    0.0000    0.0000    0.0000 H   0  0  0  0  0  0  0  0  0  0  0  0
    0.0000    0.0000    0.0000 H   0  0  0  0  0  0  0  0  0  0  0  0
    0.0000    0.0000    0.0000 H   0  0  0  0  0  0  0  0  0  0  0  0
    0.0000    0.0000    0.0000 H   0  0  0  0  0  0  0  0  0  0  0  0
    0.0000    0.0000    0.0000 H   0  0  0  0  0  0  0  0  0  0  0  0
    0.0000    0.0000    0.0000 H   0  0  0  0  0  0  0  0  0  0  0  0
    0.0000    0.0000    0.0000 H   0  0  0  0  0  0  0  0  0  0  0  0
    0.0000    0.0000    0.0000 H   0  0  0  0  0  0  0  0  0  0  0  0
   12.4902    5.2997    9.1201 N   0  0  0  0  0  0  0  0  0  0  0  0
   12.8517    4.7379    7.8812 C   0  0  0  0  0  0  0  0  0  0  0  0
   12.5538    3.2603    7.7641 C   0  0  0  0  0  0  0  0  0  0  0  0
   11.1080    3.1508    7.9528 N   0  0  0  0  0  0  0  0  0  0  0  0
   10.6861    3.6064    9.2464 C   0  0  0  0  0  0  0  0  0  0  0  0
   11.3183    4.8298    9.7476 C   0  0  0  0  0  0  0  0  0  0  0  0
   12.3458    5.2267    7.0091 H   0  0  0  0  0  0  0  0  0  0  0  0
   13.9390    4.8928    7.7128 H   0  0  0  0  0  0  0  0  0  0  0  0
   13.1233    2.6581    8.4790 H   0  0  0  0  0  0  0  0  0  0  0  0
   12.7717    2.9491    6.7345 H   0  0  0  0  0  0  0  0  0  0  0  0
   10.6883    3.8053    7.2403 H   0  0  0  0  0  0  0  0  0  0  0  0
   10.7706    2.7541    9.9844 H   0  0  0  0  0  0  0  0  0  0  0  0
    9.5672    3.7530    9.1582 H   0  0  0  0  0  0  0  0  0  0  0  0
   11.5482    4.6873   10.8465 H   0  0  0  0  0  0  0  0  0  0  0  0
   10.5728    5.6809    9.7535 H   0  0  0  0  0  0  0  0  0  0  0  0
  1  3  2  0
  1  4  1  0
  1  5  1  0
  2  4  1  0
  2  6  1  0
  4  9  1  0
  4 15  1  0
  5  6  1  0
  5  8  1  0
  6  7  2  3
  9 10  2  0
  9 14  1  0
 10 11  1  0
 11 12  2  0
 12 13  1  0
 13 14  2  0
 15 16  2  0
 15 20  1  0
 16 17  1  0
 17 18  2  0
 18 19  1  0
 19 20  2  0
  2 21  1  0
  7 22  1  0
  8 23  1  0
  8 24  1  0
  8 25  1  0
 10 26  1  0
 11 27  1  0
 12 28  1  0
 13 29  1  0
 14 30  1  0
 16 31  1  0
 17 32  1  0
 19 33  1  0
 20 34  1  0
 35 36  1  0
 36 37  1  0
 37 38  1  0
 38 39  1  0
 39 40  1  0
 40 35  1  0
 36 41  1  0
 36 42  1  0
 37 43  1  0
 37 44  1  0
 38 45  1  0
 39 46  1  0
 39 47  1  0
 40 48  1  0
 40 49  1  0
 18 35  1  0
M  END
>  <attachment_point>  (47) 
32

>  <score>  (47) 
<NA>

$$$$
4djw
     RDKit          3D

 47 50  0  0  0  0  0  0  0  0999 V2000
   22.4950   11.8750   22.5810 C   0  0  0  0  0  0  0  0  0  0  0  0
   22.5380    9.4930   22.4640 N   0  0  0  0  0  0  0  0  0  0  0  0
   22.3600   13.0630   22.3480 O   0  0  0  0  0  0  0  0  0  0  0  0
   22.3390   10.6680   21.5610 C   0  0  0  0  0  0  0  0  0  0  0  0
   22.7860   11.3350   23.8120 N   0  0  0  0  0  0  0  0  0  0  0  0
   22.7800    9.9140   23.7010 C   0  0  0  0  0  0  0  0  0  0  0  0
   22.9970    9.1110   24.7490 N   0  0  0  0  0  0  0  0  0  0  0  0
   23.0220   12.1410   25.0180 C   0  0  0  0  0  0  0  0  0  0  0  0
   20.9020   10.6270   21.0050 C   0  0  0  0  0  0  0  0  0  0  0  0
   20.2720    9.4140   20.7470 C   0  0  0  0  0  0  0  0  0  0  0  0
   18.9690    9.3760   20.2600 C   0  0  0  0  0  0  0  0  0  0  0  0
   18.2800   10.5440   20.0210 C   0  0  0  0  0  0  0  0  0  0  0  0
   18.8920   11.7530   20.2590 C   0  0  0  0  0  0  0  0  0  0  0  0
   20.1950   11.7970   20.7440 C   0  0  0  0  0  0  0  0  0  0  0  0
   23.4880   10.6920   20.5300 C   0  0  0  0  0  0  0  0  0  0  0  0
   23.2110   10.7890   19.1730 C   0  0  0  0  0  0  0  0  0  0  0  0
   24.2350   10.8650   18.2430 C   0  0  0  0  0  0  0  0  0  0  0  0
   25.5500   10.8410   18.6560 C   0  0  0  0  0  0  0  0  0  0  0  0
   25.8710   10.7460   20.0070 C   0  0  0  0  0  0  0  0  0  0  0  0
   24.8260   10.6610   20.9430 C   0  0  0  0  0  0  0  0  0  0  0  0
    0.0000    0.0000    0.0000 H   0  0  0  0  0  0  0  0  0  0  0  0
    0.0000    0.0000    0.0000 H   0  0  0  0  0  0  0  0  0  0  0  0
    0.0000    0.0000    0.0000 H   0  0  0  0  0  0  0  0  0  0  0  0
    0.0000    0.0000    0.0000 H   0  0  0  0  0  0  0  0  0  0  0  0
    0.0000    0.0000    0.0000 H   0  0  0  0  0  0  0  0  0  0  0  0
    0.0000    0.0000    0.0000 H   0  0  0  0  0  0  0  0  0  0  0  0
    0.0000    0.0000    0.0000 H   0  0  0  0  0  0  0  0  0  0  0  0
    0.0000    0.0000    0.0000 H   0  0  0  0  0  0  0  0  0  0  0  0
    0.0000    0.0000    0.0000 H   0  0  0  0  0  0  0  0  0  0  0  0
    0.0000    0.0000    0.0000 H   0  0  0  0  0  0  0  0  0  0  0  0
    0.0000    0.0000    0.0000 H   0  0  0  0  0  0  0  0  0  0  0  0
    0.0000    0.0000    0.0000 H   0  0  0  0  0  0  0  0  0  0  0  0
    0.0000    0.0000    0.0000 H   0  0  0  0  0  0  0  0  0  0  0  0
    0.0000    0.0000    0.0000 H   0  0  0  0  0  0  0  0  0  0  0  0
   12.3826    5.2540    9.0415 N   0  0  0  0  0  0  0  0  0  0  0  0
   12.7829    6.0763    7.8915 C   0  0  0  0  0  0  0  0  0  0  0  0
   12.8426    7.4727    8.4253 C   0  0  0  0  0  0  0  0  0  0  0  0
   11.7982    7.4953    9.5058 C   0  0  0  0  0  0  0  0  0  0  0  0
   11.4048    6.0776    9.7666 C   0  0  0  0  0  0  0  0  0  0  0  0
   11.9965    5.9740    7.1487 H   0  0  0  0  0  0  0  0  0  0  0  0
   13.7491    5.7055    7.5140 H   0  0  0  0  0  0  0  0  0  0  0  0
   13.8542    7.6326    8.8775 H   0  0  0  0  0  0  0  0  0  0  0  0
   12.6538    8.2169    7.6178 H   0  0  0  0  0  0  0  0  0  0  0  0
   10.8942    8.0610    9.1618 H   0  0  0  0  0  0  0  0  0  0  0  0
   12.1880    7.9756   10.4102 H   0  0  0  0  0  0  0  0  0  0  0  0
   11.4570    5.7790   10.8308 H   0  0  0  0  0  0  0  0  0  0  0  0
   10.4268    5.8008    9.3813 H   0  0  0  0  0  0  0  0  0  0  0  0
  1  3  2  0
  1  4  1  0
  1  5  1  0
  2  4  1  0
  2  6  1  0
  4  9  1  0
  4 15  1  0
  5  6  1  0
  5  8  1  0
  6  7  2  3
  9 10  2  0
  9 14  1  0
 10 11  1  0
 11 12  2  0
 12 13  1  0
 13 14  2  0
 15 16  2  0
 15 20  1  0
 16 17  1  0
 17 18  2  0
 18 19  1  0
 19 20  2  0
  2 21  1  0
  7 22  1  0
  8 23  1  0
  8 24  1  0
  8 25  1  0
 10 26  1  0
 11 27  1  0
 12 28  1  0
 13 29  1  0
 14 30  1  0
 16 31  1  0
 17 32  1  0
 19 33  1  0
 20 34  1  0
 35 36  1  0
 36 37  1  0
 37 38  1  0
 38 39  1  0
 39 35  1  0
 36 40  1  0
 36 41  1  0
 37 42  1  0
 37 43  1  0
 38 44  1  0
 38 45  1  0
 39 46  1  0
 39 47  1  0
 18 35  1  0
M  END
>  <attachment_point>  (48) 
32

>  <score>  (48) 
<NA>

$$$$
4djw
     RDKit          3D

 49 52  0  0  0  0  0  0  0  0999 V2000
   22.4950   11.8750   22.5810 C   0  0  0  0  0  0  0  0  0  0  0  0
   22.5380    9.4930   22.4640 N   0  0  0  0  0  0  0  0  0  0  0  0
   22.3600   13.0630   22.3480 O   0  0  0  0  0  0  0  0  0  0  0  0
   22.3390   10.6680   21.5610 C   0  0  0  0  0  0  0  0  0  0  0  0
   22.7860   11.3350   23.8120 N   0  0  0  0  0  0  0  0  0  0  0  0
   22.7800    9.9140   23.7010 C   0  0  0  0  0  0  0  0  0  0  0  0
   22.9970    9.1110   24.7490 N   0  0  0  0  0  0  0  0  0  0  0  0
   23.0220   12.1410   25.0180 C   0  0  0  0  0  0  0  0  0  0  0  0
   20.9020   10.6270   21.0050 C   0  0  0  0  0  0  0  0  0  0  0  0
   20.2720    9.4140   20.7470 C   0  0  0  0  0  0  0  0  0  0  0  0
   18.9690    9.3760   20.2600 C   0  0  0  0  0  0  0  0  0  0  0  0
   18.2800   10.5440   20.0210 C   0  0  0  0  0  0  0  0  0  0  0  0
   18.8920   11.7530   20.2590 C   0  0  0  0  0  0  0  0  0  0  0  0
   20.1950   11.7970   20.7440 C   0  0  0  0  0  0  0  0  0  0  0  0
   23.4880   10.6920   20.5300 C   0  0  0  0  0  0  0  0  0  0  0  0
   23.2110   10.7890   19.1730 C   0  0  0  0  0  0  0  0  0  0  0  0
   24.2350   10.8650   18.2430 C   0  0  0  0  0  0  0  0  0  0  0  0
   25.5500   10.8410   18.6560 C   0  0  0  0  0  0  0  0  0  0  0  0
   25.8710   10.7460   20.0070 C   0  0  0  0  0  0  0  0  0  0  0  0
   24.8260   10.6610   20.9430 C   0  0  0  0  0  0  0  0  0  0  0  0
    0.0000    0.0000    0.0000 H   0  0  0  0  0  0  0  0  0  0  0  0
    0.0000    0.0000    0.0000 H   0  0  0  0  0  0  0  0  0  0  0  0
    0.0000    0.0000    0.0000 H   0  0  0  0  0  0  0  0  0  0  0  0
    0.0000    0.0000    0.0000 H   0  0  0  0  0  0  0  0  0  0  0  0
    0.0000    0.0000    0.0000 H   0  0  0  0  0  0  0  0  0  0  0  0
    0.0000    0.0000    0.0000 H   0  0  0  0  0  0  0  0  0  0  0  0
    0.0000    0.0000    0.0000 H   0  0  0  0  0  0  0  0  0  0  0  0
    0.0000    0.0000    0.0000 H   0  0  0  0  0  0  0  0  0  0  0  0
    0.0000    0.0000    0.0000 H   0  0  0  0  0  0  0  0  0  0  0  0
    0.0000    0.0000    0.0000 H   0  0  0  0  0  0  0  0  0  0  0  0
    0.0000    0.0000    0.0000 H   0  0  0  0  0  0  0  0  0  0  0  0
    0.0000    0.0000    0.0000 H   0  0  0  0  0  0  0  0  0  0  0  0
    0.0000    0.0000    0.0000 H   0  0  0  0  0  0  0  0  0  0  0  0
    0.0000    0.0000    0.0000 H   0  0  0  0  0  0  0  0  0  0  0  0
   12.4198    5.2698    9.0687 C   0  0  0  0  0  0  0  0  0  0  0  0
   12.5399    5.2314    7.7141 C   0  0  0  0  0  0  0  0  0  0  0  0
   11.4670    4.7768    6.9430 C   0  0  0  0  0  0  0  0  0  0  0  0
   10.3034    4.3760    7.5963 C   0  0  0  0  0  0  0  0  0  0  0  0
   10.1951    4.4201    8.9716 C   0  0  0  0  0  0  0  0  0  0  0  0
    9.0356    4.0177    9.5738 O   0  0  0  0  0  0  0  0  0  0  0  0
    8.9019    4.0546   10.9871 C   0  0  0  0  0  0  0  0  0  0  0  0
   11.2776    4.8779    9.7358 C   0  0  0  0  0  0  0  0  0  0  0  0
   13.4675    5.5554    7.2664 H   0  0  0  0  0  0  0  0  0  0  0  0
   11.5650    4.7479    5.8757 H   0  0  0  0  0  0  0  0  0  0  0  0
    9.4593    4.0213    7.0359 H   0  0  0  0  0  0  0  0  0  0  0  0
    9.2696    5.0337   11.3927 H   0  0  0  0  0  0  0  0  0  0  0  0
    7.8773    3.8698   11.3195 H   0  0  0  0  0  0  0  0  0  0  0  0
    9.5496    3.2772   11.4495 H   0  0  0  0  0  0  0  0  0  0  0  0
   11.2275    4.9250   10.8010 H   0  0  0  0  0  0  0  0  0  0  0  0
  1  3  2  0
  1  4  1  0
  1  5  1  0
  2  4  1  0
  2  6  1  0
  4  9  1  0
  4 15  1  0
  5  6  1  0
  5  8  1  0
  6  7  2  3
  9 10  2  0
  9 14  1  0
 10 11  1  0
 11 12  2  0
 12 13  1  0
 13 14  2  0
 15 16  2  0
 15 20  1  0
 16 17  1  0
 17 18  2  0
 18 19  1  0
 19 20  2  0
  2 21  1  0
  7 22  1  0
  8 23  1  0
  8 24  1  0
  8 25  1  0
 10 26  1  0
 11 27  1  0
 12 28  1  0
 13 29  1  0
 14 30  1  0
 16 31  1  0
 17 32  1  0
 19 33  1  0
 20 34  1  0
 35 36  2  0
 36 37  1  0
 37 38  2  0
 38 39  1  0
 39 40  1  0
 40 41  1  0
 39 42  2  0
 42 35  1  0
 36 43  1  0
 37 44  1  0
 38 45  1  0
 41 46  1  0
 41 47  1  0
 41 48  1  0
 42 49  1  0
 18 35  1  0
M  END
>  <attachment_point>  (49) 
32

>  <score>  (49) 
<NA>

$$$$
4djw
     RDKit          3D

 46 49  0  0  0  0  0  0  0  0999 V2000
   22.4950   11.8750   22.5810 C   0  0  0  0  0  0  0  0  0  0  0  0
   22.5380    9.4930   22.4640 N   0  0  0  0  0  0  0  0  0  0  0  0
   22.3600   13.0630   22.3480 O   0  0  0  0  0  0  0  0  0  0  0  0
   22.3390   10.6680   21.5610 C   0  0  0  0  0  0  0  0  0  0  0  0
   22.7860   11.3350   23.8120 N   0  0  0  0  0  0  0  0  0  0  0  0
   22.7800    9.9140   23.7010 C   0  0  0  0  0  0  0  0  0  0  0  0
   22.9970    9.1110   24.7490 N   0  0  0  0  0  0  0  0  0  0  0  0
   23.0220   12.1410   25.0180 C   0  0  0  0  0  0  0  0  0  0  0  0
   20.9020   10.6270   21.0050 C   0  0  0  0  0  0  0  0  0  0  0  0
   20.2720    9.4140   20.7470 C   0  0  0  0  0  0  0  0  0  0  0  0
   18.9690    9.3760   20.2600 C   0  0  0  0  0  0  0  0  0  0  0  0
   18.2800   10.5440   20.0210 C   0  0  0  0  0  0  0  0  0  0  0  0
   18.8920   11.7530   20.2590 C   0  0  0  0  0  0  0  0  0  0  0  0
   20.1950   11.7970   20.7440 C   0  0  0  0  0  0  0  0  0  0  0  0
   23.4880   10.6920   20.5300 C   0  0  0  0  0  0  0  0  0  0  0  0
   23.2110   10.7890   19.1730 C   0  0  0  0  0  0  0  0  0  0  0  0
   24.2350   10.8650   18.2430 C   0  0  0  0  0  0  0  0  0  0  0  0
   25.5500   10.8410   18.6560 C   0  0  0  0  0  0  0  0  0  0  0  0
   25.8710   10.7460   20.0070 C   0  0  0  0  0  0  0  0  0  0  0  0
   24.8260   10.6610   20.9430 C   0  0  0  0  0  0  0  0  0  0  0  0
    0.0000    0.0000    0.0000 H   0  0  0  0  0  0  0  0  0  0  0  0
    0.0000    0.0000    0.0000 H   0  0  0  0  0  0  0  0  0  0  0  0
    0.0000    0.0000    0.0000 H   0  0  0  0  0  0  0  0  0  0  0  0
    0.0000    0.0000    0.0000 H   0  0  0  0  0  0  0  0  0  0  0  0
    0.0000    0.0000    0.0000 H   0  0  0  0  0  0  0  0  0  0  0  0
    0.0000    0.0000    0.0000 H   0  0  0  0  0  0  0  0  0  0  0  0
    0.0000    0.0000    0.0000 H   0  0  0  0  0  0  0  0  0  0  0  0
    0.0000    0.0000    0.0000 H   0  0  0  0  0  0  0  0  0  0  0  0
    0.0000    0.0000    0.0000 H   0  0  0  0  0  0  0  0  0  0  0  0
    0.0000    0.0000    0.0000 H   0  0  0  0  0  0  0  0  0  0  0  0
    0.0000    0.0000    0.0000 H   0  0  0  0  0  0  0  0  0  0  0  0
    0.0000    0.0000    0.0000 H   0  0  0  0  0  0  0  0  0  0  0  0
    0.0000    0.0000    0.0000 H   0  0  0  0  0  0  0  0  0  0  0  0
    0.0000    0.0000    0.0000 H   0  0  0  0  0  0  0  0  0  0  0  0
   12.4135    5.2671    9.0640 C   0  0  0  0  0  0  0  0  0  0  0  0
   11.4717    6.1643    8.6696 C   0  0  0  0  0  0  0  0  0  0  0  0
   10.3790    5.7654    7.8864 C   0  0  0  0  0  0  0  0  0  0  0  0
   10.3267    4.4099    7.5469 C   0  0  0  0  0  0  0  0  0  0  0  0
   11.2795    3.5073    7.9471 C   0  0  0  0  0  0  0  0  0  0  0  0
   11.2509    2.1688    7.6266 O   0  0  0  0  0  0  0  0  0  0  0  0
   12.3543    3.9501    8.7289 C   0  0  0  0  0  0  0  0  0  0  0  0
   11.4955    7.2203    8.9234 H   0  0  0  0  0  0  0  0  0  0  0  0
    9.6279    6.4756    7.5707 H   0  0  0  0  0  0  0  0  0  0  0  0
    9.4887    4.0785    6.9407 H   0  0  0  0  0  0  0  0  0  0  0  0
   11.7708    1.8901    6.7819 H   0  0  0  0  0  0  0  0  0  0  0  0
   13.1108    3.2394    9.0480 H   0  0  0  0  0  0  0  0  0  0  0  0
  1  3  2  0
  1  4  1  0
  1  5  1  0
  2  4  1  0
  2  6  1  0
  4  9  1  0
  4 15  1  0
  5  6  1  0
  5  8  1  0
  6  7  2  3
  9 10  2  0
  9 14  1  0
 10 11  1  0
 11 12  2  0
 12 13  1  0
 13 14  2  0
 15 16  2  0
 15 20  1  0
 16 17  1  0
 17 18  2  0
 18 19  1  0
 19 20  2  0
  2 21  1  0
  7 22  1  0
  8 23  1  0
  8 24  1  0
  8 25  1  0
 10 26  1  0
 11 27  1  0
 12 28  1  0
 13 29  1  0
 14 30  1  0
 16 31  1  0
 17 32  1  0
 19 33  1  0
 20 34  1  0
 35 36  2  0
 36 37  1  0
 37 38  2  0
 38 39  1  0
 39 40  1  0
 39 41  2  0
 41 35  1  0
 36 42  1  0
 37 43  1  0
 38 44  1  0
 40 45  1  0
 41 46  1  0
 18 35  1  0
M  END
>  <attachment_point>  (50) 
32

>  <score>  (50) 
<NA>

$$$$
4djw
     RDKit          3D

 51 54  0  0  0  0  0  0  0  0999 V2000
   22.4950   11.8750   22.5810 C   0  0  0  0  0  0  0  0  0  0  0  0
   22.5380    9.4930   22.4640 N   0  0  0  0  0  0  0  0  0  0  0  0
   22.3600   13.0630   22.3480 O   0  0  0  0  0  0  0  0  0  0  0  0
   22.3390   10.6680   21.5610 C   0  0  0  0  0  0  0  0  0  0  0  0
   22.7860   11.3350   23.8120 N   0  0  0  0  0  0  0  0  0  0  0  0
   22.7800    9.9140   23.7010 C   0  0  0  0  0  0  0  0  0  0  0  0
   22.9970    9.1110   24.7490 N   0  0  0  0  0  0  0  0  0  0  0  0
   23.0220   12.1410   25.0180 C   0  0  0  0  0  0  0  0  0  0  0  0
   20.9020   10.6270   21.0050 C   0  0  0  0  0  0  0  0  0  0  0  0
   20.2720    9.4140   20.7470 C   0  0  0  0  0  0  0  0  0  0  0  0
   18.9690    9.3760   20.2600 C   0  0  0  0  0  0  0  0  0  0  0  0
   18.2800   10.5440   20.0210 C   0  0  0  0  0  0  0  0  0  0  0  0
   18.8920   11.7530   20.2590 C   0  0  0  0  0  0  0  0  0  0  0  0
   20.1950   11.7970   20.7440 C   0  0  0  0  0  0  0  0  0  0  0  0
   23.4880   10.6920   20.5300 C   0  0  0  0  0  0  0  0  0  0  0  0
   23.2110   10.7890   19.1730 C   0  0  0  0  0  0  0  0  0  0  0  0
   24.2350   10.8650   18.2430 C   0  0  0  0  0  0  0  0  0  0  0  0
   25.5500   10.8410   18.6560 C   0  0  0  0  0  0  0  0  0  0  0  0
   25.8710   10.7460   20.0070 C   0  0  0  0  0  0  0  0  0  0  0  0
   24.8260   10.6610   20.9430 C   0  0  0  0  0  0  0  0  0  0  0  0
    0.0000    0.0000    0.0000 H   0  0  0  0  0  0  0  0  0  0  0  0
    0.0000    0.0000    0.0000 H   0  0  0  0  0  0  0  0  0  0  0  0
    0.0000    0.0000    0.0000 H   0  0  0  0  0  0  0  0  0  0  0  0
    0.0000    0.0000    0.0000 H   0  0  0  0  0  0  0  0  0  0  0  0
    0.0000    0.0000    0.0000 H   0  0  0  0  0  0  0  0  0  0  0  0
    0.0000    0.0000    0.0000 H   0  0  0  0  0  0  0  0  0  0  0  0
    0.0000    0.0000    0.0000 H   0  0  0  0  0  0  0  0  0  0  0  0
    0.0000    0.0000    0.0000 H   0  0  0  0  0  0  0  0  0  0  0  0
    0.0000    0.0000    0.0000 H   0  0  0  0  0  0  0  0  0  0  0  0
    0.0000    0.0000    0.0000 H   0  0  0  0  0  0  0  0  0  0  0  0
    0.0000    0.0000    0.0000 H   0  0  0  0  0  0  0  0  0  0  0  0
    0.0000    0.0000    0.0000 H   0  0  0  0  0  0  0  0  0  0  0  0
    0.0000    0.0000    0.0000 H   0  0  0  0  0  0  0  0  0  0  0  0
    0.0000    0.0000    0.0000 H   0  0  0  0  0  0  0  0  0  0  0  0
   12.4444    5.2802    9.0866 C   0  0  0  0  0  0  0  0  0  0  0  0
   11.2718    5.0590    9.8359 N   0  0  0  0  0  0  0  0  0  0  0  0
   10.7146    6.1467   10.5279 C   0  0  0  0  0  0  0  0  0  0  0  0
    9.4325    6.5682    9.8001 C   0  0  0  0  0  0  0  0  0  0  0  0
    8.5623    5.5019    9.9520 O   0  0  0  0  0  0  0  0  0  0  0  0
    8.9599    4.3382    9.3814 C   0  0  0  0  0  0  0  0  0  0  0  0
   10.4108    4.0320    9.4304 C   0  0  0  0  0  0  0  0  0  0  0  0
   12.3475    5.9943    8.2473 H   0  0  0  0  0  0  0  0  0  0  0  0
   12.7780    4.3203    8.6409 H   0  0  0  0  0  0  0  0  0  0  0  0
   10.3665    5.7773   11.5373 H   0  0  0  0  0  0  0  0  0  0  0  0
   11.4062    6.9656   10.6753 H   0  0  0  0  0  0  0  0  0  0  0  0
    9.0160    7.4631   10.2585 H   0  0  0  0  0  0  0  0  0  0  0  0
    9.6247    6.6807    8.7153 H   0  0  0  0  0  0  0  0  0  0  0  0
    8.4038    3.4994    9.8956 H   0  0  0  0  0  0  0  0  0  0  0  0
    8.5493    4.3146    8.3306 H   0  0  0  0  0  0  0  0  0  0  0  0
   10.6189    3.1203   10.0656 H   0  0  0  0  0  0  0  0  0  0  0  0
   10.7164    3.6977    8.3945 H   0  0  0  0  0  0  0  0  0  0  0  0
  1  3  2  0
  1  4  1  0
  1  5  1  0
  2  4  1  0
  2  6  1  0
  4  9  1  0
  4 15  1  0
  5  6  1  0
  5  8  1  0
  6  7  2  3
  9 10  2  0
  9 14  1  0
 10 11  1  0
 11 12  2  0
 12 13  1  0
 13 14  2  0
 15 16  2  0
 15 20  1  0
 16 17  1  0
 17 18  2  0
 18 19  1  0
 19 20  2  0
  2 21  1  0
  7 22  1  0
  8 23  1  0
  8 24  1  0
  8 25  1  0
 10 26  1  0
 11 27  1  0
 12 28  1  0
 13 29  1  0
 14 30  1  0
 16 31  1  0
 17 32  1  0
 19 33  1  0
 20 34  1  0
 35 36  1  0
 36 37  1  0
 37 38  1  0
 38 39  1  0
 39 40  1  0
 40 41  1  0
 41 36  1  0
 35 42  1  0
 35 43  1  0
 37 44  1  0
 37 45  1  0
 38 46  1  0
 38 47  1  0
 40 48  1  0
 40 49  1  0
 41 50  1  0
 41 51  1  0
 18 35  1  0
M  END
>  <attachment_point>  (51) 
32

>  <score>  (51) 
<NA>

$$$$
4djw
     RDKit          3D

 44 46  0  0  0  0  0  0  0  0999 V2000
   22.4950   11.8750   22.5810 C   0  0  0  0  0  0  0  0  0  0  0  0
   22.5380    9.4930   22.4640 N   0  0  0  0  0  0  0  0  0  0  0  0
   22.3600   13.0630   22.3480 O   0  0  0  0  0  0  0  0  0  0  0  0
   22.3390   10.6680   21.5610 C   0  0  0  0  0  0  0  0  0  0  0  0
   22.7860   11.3350   23.8120 N   0  0  0  0  0  0  0  0  0  0  0  0
   22.7800    9.9140   23.7010 C   0  0  0  0  0  0  0  0  0  0  0  0
   22.9970    9.1110   24.7490 N   0  0  0  0  0  0  0  0  0  0  0  0
   23.0220   12.1410   25.0180 C   0  0  0  0  0  0  0  0  0  0  0  0
   20.9020   10.6270   21.0050 C   0  0  0  0  0  0  0  0  0  0  0  0
   20.2720    9.4140   20.7470 C   0  0  0  0  0  0  0  0  0  0  0  0
   18.9690    9.3760   20.2600 C   0  0  0  0  0  0  0  0  0  0  0  0
   18.2800   10.5440   20.0210 C   0  0  0  0  0  0  0  0  0  0  0  0
   18.8920   11.7530   20.2590 C   0  0  0  0  0  0  0  0  0  0  0  0
   20.1950   11.7970   20.7440 C   0  0  0  0  0  0  0  0  0  0  0  0
   23.4880   10.6920   20.5300 C   0  0  0  0  0  0  0  0  0  0  0  0
   23.2110   10.7890   19.1730 C   0  0  0  0  0  0  0  0  0  0  0  0
   24.2350   10.8650   18.2430 C   0  0  0  0  0  0  0  0  0  0  0  0
   25.5500   10.8410   18.6560 C   0  0  0  0  0  0  0  0  0  0  0  0
   25.8710   10.7460   20.0070 C   0  0  0  0  0  0  0  0  0  0  0  0
   24.8260   10.6610   20.9430 C   0  0  0  0  0  0  0  0  0  0  0  0
    0.0000    0.0000    0.0000 H   0  0  0  0  0  0  0  0  0  0  0  0
    0.0000    0.0000    0.0000 H   0  0  0  0  0  0  0  0  0  0  0  0
    0.0000    0.0000    0.0000 H   0  0  0  0  0  0  0  0  0  0  0  0
    0.0000    0.0000    0.0000 H   0  0  0  0  0  0  0  0  0  0  0  0
    0.0000    0.0000    0.0000 H   0  0  0  0  0  0  0  0  0  0  0  0
    0.0000    0.0000    0.0000 H   0  0  0  0  0  0  0  0  0  0  0  0
    0.0000    0.0000    0.0000 H   0  0  0  0  0  0  0  0  0  0  0  0
    0.0000    0.0000    0.0000 H   0  0  0  0  0  0  0  0  0  0  0  0
    0.0000    0.0000    0.0000 H   0  0  0  0  0  0  0  0  0  0  0  0
    0.0000    0.0000    0.0000 H   0  0  0  0  0  0  0  0  0  0  0  0
    0.0000    0.0000    0.0000 H   0  0  0  0  0  0  0  0  0  0  0  0
    0.0000    0.0000    0.0000 H   0  0  0  0  0  0  0  0  0  0  0  0
    0.0000    0.0000    0.0000 H   0  0  0  0  0  0  0  0  0  0  0  0
    0.0000    0.0000    0.0000 H   0  0  0  0  0  0  0  0  0  0  0  0
   12.4542    5.2844    9.0938 C   0  0  0  0  0  0  0  0  0  0  0  0
   11.5727    6.0421    8.5989 O   0  0  0  0  0  0  0  0  0  0  0  0
   12.3572    3.9292    8.8503 O   0  0  0  0  0  0  0  0  0  0  0  0
   11.3505    3.3175    8.0909 C   0  0  0  0  0  0  0  0  0  0  0  0
   11.3593    3.8516    6.6859 C   0  0  0  0  0  0  0  0  0  0  0  0
   10.3694    3.4463    8.5972 H   0  0  0  0  0  0  0  0  0  0  0  0
   11.5709    2.2134    8.1000 H   0  0  0  0  0  0  0  0  0  0  0  0
   10.9947    3.1119    5.9455 H   0  0  0  0  0  0  0  0  0  0  0  0
   10.7865    4.7992    6.6784 H   0  0  0  0  0  0  0  0  0  0  0  0
   12.4040    4.1134    6.4074 H   0  0  0  0  0  0  0  0  0  0  0  0
  1  3  2  0
  1  4  1  0
  1  5  1  0
  2  4  1  0
  2  6  1  0
  4  9  1  0
  4 15  1  0
  5  6  1  0
  5  8  1  0
  6  7  2  3
  9 10  2  0
  9 14  1  0
 10 11  1  0
 11 12  2  0
 12 13  1  0
 13 14  2  0
 15 16  2  0
 15 20  1  0
 16 17  1  0
 17 18  2  0
 18 19  1  0
 19 20  2  0
  2 21  1  0
  7 22  1  0
  8 23  1  0
  8 24  1  0
  8 25  1  0
 10 26  1  0
 11 27  1  0
 12 28  1  0
 13 29  1  0
 14 30  1  0
 16 31  1  0
 17 32  1  0
 19 33  1  0
 20 34  1  0
 35 36  2  0
 35 37  1  0
 37 38  1  0
 38 39  1  0
 38 40  1  0
 38 41  1  0
 39 42  1  0
 39 43  1  0
 39 44  1  0
 18 35  1  0
M  END
>  <attachment_point>  (52) 
32

>  <score>  (52) 
<NA>

$$$$
4djw
     RDKit          3D

 40 42  0  0  0  0  0  0  0  0999 V2000
   22.4950   11.8750   22.5810 C   0  0  0  0  0  0  0  0  0  0  0  0
   22.5380    9.4930   22.4640 N   0  0  0  0  0  0  0  0  0  0  0  0
   22.3600   13.0630   22.3480 O   0  0  0  0  0  0  0  0  0  0  0  0
   22.3390   10.6680   21.5610 C   0  0  0  0  0  0  0  0  0  0  0  0
   22.7860   11.3350   23.8120 N   0  0  0  0  0  0  0  0  0  0  0  0
   22.7800    9.9140   23.7010 C   0  0  0  0  0  0  0  0  0  0  0  0
   22.9970    9.1110   24.7490 N   0  0  0  0  0  0  0  0  0  0  0  0
   23.0220   12.1410   25.0180 C   0  0  0  0  0  0  0  0  0  0  0  0
   20.9020   10.6270   21.0050 C   0  0  0  0  0  0  0  0  0  0  0  0
   20.2720    9.4140   20.7470 C   0  0  0  0  0  0  0  0  0  0  0  0
   18.9690    9.3760   20.2600 C   0  0  0  0  0  0  0  0  0  0  0  0
   18.2800   10.5440   20.0210 C   0  0  0  0  0  0  0  0  0  0  0  0
   18.8920   11.7530   20.2590 C   0  0  0  0  0  0  0  0  0  0  0  0
   20.1950   11.7970   20.7440 C   0  0  0  0  0  0  0  0  0  0  0  0
   23.4880   10.6920   20.5300 C   0  0  0  0  0  0  0  0  0  0  0  0
   23.2110   10.7890   19.1730 C   0  0  0  0  0  0  0  0  0  0  0  0
   24.2350   10.8650   18.2430 C   0  0  0  0  0  0  0  0  0  0  0  0
   25.5500   10.8410   18.6560 C   0  0  0  0  0  0  0  0  0  0  0  0
   25.8710   10.7460   20.0070 C   0  0  0  0  0  0  0  0  0  0  0  0
   24.8260   10.6610   20.9430 C   0  0  0  0  0  0  0  0  0  0  0  0
    0.0000    0.0000    0.0000 H   0  0  0  0  0  0  0  0  0  0  0  0
    0.0000    0.0000    0.0000 H   0  0  0  0  0  0  0  0  0  0  0  0
    0.0000    0.0000    0.0000 H   0  0  0  0  0  0  0  0  0  0  0  0
    0.0000    0.0000    0.0000 H   0  0  0  0  0  0  0  0  0  0  0  0
    0.0000    0.0000    0.0000 H   0  0  0  0  0  0  0  0  0  0  0  0
    0.0000    0.0000    0.0000 H   0  0  0  0  0  0  0  0  0  0  0  0
    0.0000    0.0000    0.0000 H   0  0  0  0  0  0  0  0  0  0  0  0
    0.0000    0.0000    0.0000 H   0  0  0  0  0  0  0  0  0  0  0  0
    0.0000    0.0000    0.0000 H   0  0  0  0  0  0  0  0  0  0  0  0
    0.0000    0.0000    0.0000 H   0  0  0  0  0  0  0  0  0  0  0  0
    0.0000    0.0000    0.0000 H   0  0  0  0  0  0  0  0  0  0  0  0
    0.0000    0.0000    0.0000 H   0  0  0  0  0  0  0  0  0  0  0  0
    0.0000    0.0000    0.0000 H   0  0  0  0  0  0  0  0  0  0  0  0
    0.0000    0.0000    0.0000 H   0  0  0  0  0  0  0  0  0  0  0  0
   12.4410    5.2788    9.0841 S   0  0  0  0  0  6  0  0  0  0  0  0
   12.8537    4.6087    7.5676 N   0  0  0  0  0  0  0  0  0  0  0  0
   11.5066    6.4234    8.8536 O   0  0  0  0  0  0  0  0  0  0  0  0
   11.6888    4.2698    9.9285 O   0  0  0  0  0  0  0  0  0  0  0  0
   13.7981    4.1906    7.5438 H   0  0  0  0  0  0  0  0  0  0  0  0
   12.5965    5.1814    6.7552 H   0  0  0  0  0  0  0  0  0  0  0  0
  1  3  2  0
  1  4  1  0
  1  5  1  0
  2  4  1  0
  2  6  1  0
  4  9  1  0
  4 15  1  0
  5  6  1  0
  5  8  1  0
  6  7  2  3
  9 10  2  0
  9 14  1  0
 10 11  1  0
 11 12  2  0
 12 13  1  0
 13 14  2  0
 15 16  2  0
 15 20  1  0
 16 17  1  0
 17 18  2  0
 18 19  1  0
 19 20  2  0
  2 21  1  0
  7 22  1  0
  8 23  1  0
  8 24  1  0
  8 25  1  0
 10 26  1  0
 11 27  1  0
 12 28  1  0
 13 29  1  0
 14 30  1  0
 16 31  1  0
 17 32  1  0
 19 33  1  0
 20 34  1  0
 35 36  1  0
 35 37  2  0
 35 38  2  0
 36 39  1  0
 36 40  1  0
 18 35  1  0
M  END
>  <attachment_point>  (53) 
32

>  <score>  (53) 
<NA>

$$$$
4djw
     RDKit          3D

 50 53  0  0  0  0  0  0  0  0999 V2000
   22.4950   11.8750   22.5810 C   0  0  0  0  0  0  0  0  0  0  0  0
   22.5380    9.4930   22.4640 N   0  0  0  0  0  0  0  0  0  0  0  0
   22.3600   13.0630   22.3480 O   0  0  0  0  0  0  0  0  0  0  0  0
   22.3390   10.6680   21.5610 C   0  0  0  0  0  0  0  0  0  0  0  0
   22.7860   11.3350   23.8120 N   0  0  0  0  0  0  0  0  0  0  0  0
   22.7800    9.9140   23.7010 C   0  0  0  0  0  0  0  0  0  0  0  0
   22.9970    9.1110   24.7490 N   0  0  0  0  0  0  0  0  0  0  0  0
   23.0220   12.1410   25.0180 C   0  0  0  0  0  0  0  0  0  0  0  0
   20.9020   10.6270   21.0050 C   0  0  0  0  0  0  0  0  0  0  0  0
   20.2720    9.4140   20.7470 C   0  0  0  0  0  0  0  0  0  0  0  0
   18.9690    9.3760   20.2600 C   0  0  0  0  0  0  0  0  0  0  0  0
   18.2800   10.5440   20.0210 C   0  0  0  0  0  0  0  0  0  0  0  0
   18.8920   11.7530   20.2590 C   0  0  0  0  0  0  0  0  0  0  0  0
   20.1950   11.7970   20.7440 C   0  0  0  0  0  0  0  0  0  0  0  0
   23.4880   10.6920   20.5300 C   0  0  0  0  0  0  0  0  0  0  0  0
   23.2110   10.7890   19.1730 C   0  0  0  0  0  0  0  0  0  0  0  0
   24.2350   10.8650   18.2430 C   0  0  0  0  0  0  0  0  0  0  0  0
   25.5500   10.8410   18.6560 C   0  0  0  0  0  0  0  0  0  0  0  0
   25.8710   10.7460   20.0070 C   0  0  0  0  0  0  0  0  0  0  0  0
   24.8260   10.6610   20.9430 C   0  0  0  0  0  0  0  0  0  0  0  0
    0.0000    0.0000    0.0000 H   0  0  0  0  0  0  0  0  0  0  0  0
    0.0000    0.0000    0.0000 H   0  0  0  0  0  0  0  0  0  0  0  0
    0.0000    0.0000    0.0000 H   0  0  0  0  0  0  0  0  0  0  0  0
    0.0000    0.0000    0.0000 H   0  0  0  0  0  0  0  0  0  0  0  0
    0.0000    0.0000    0.0000 H   0  0  0  0  0  0  0  0  0  0  0  0
    0.0000    0.0000    0.0000 H   0  0  0  0  0  0  0  0  0  0  0  0
    0.0000    0.0000    0.0000 H   0  0  0  0  0  0  0  0  0  0  0  0
    0.0000    0.0000    0.0000 H   0  0  0  0  0  0  0  0  0  0  0  0
    0.0000    0.0000    0.0000 H   0  0  0  0  0  0  0  0  0  0  0  0
    0.0000    0.0000    0.0000 H   0  0  0  0  0  0  0  0  0  0  0  0
    0.0000    0.0000    0.0000 H   0  0  0  0  0  0  0  0  0  0  0  0
    0.0000    0.0000    0.0000 H   0  0  0  0  0  0  0  0  0  0  0  0
    0.0000    0.0000    0.0000 H   0  0  0  0  0  0  0  0  0  0  0  0
    0.0000    0.0000    0.0000 H   0  0  0  0  0  0  0  0  0  0  0  0
   12.4775    5.2943    9.1107 N   0  0  0  0  0  0  0  0  0  0  0  0
   11.2862    6.1183    9.2079 C   0  0  0  0  0  0  0  0  0  0  0  0
   10.7788    6.1769   10.6037 C   0  0  0  0  0  0  0  0  0  0  0  0
   11.2138    7.1575   11.4725 C   0  0  0  0  0  0  0  0  0  0  0  0
   10.7291    7.1894   12.7572 C   0  0  0  0  0  0  0  0  0  0  0  0
    9.8121    6.2838   13.2529 C   0  0  0  0  0  0  0  0  0  0  0  0
    9.3906    5.3120   12.3679 C   0  0  0  0  0  0  0  0  0  0  0  0
    9.8615    5.2551   11.0676 C   0  0  0  0  0  0  0  0  0  0  0  0
   12.7679    5.1069    8.1501 H   0  0  0  0  0  0  0  0  0  0  0  0
   11.6007    7.1413    8.8499 H   0  0  0  0  0  0  0  0  0  0  0  0
   10.5238    5.7757    8.4965 H   0  0  0  0  0  0  0  0  0  0  0  0
   11.9351    7.8672   11.0772 H   0  0  0  0  0  0  0  0  0  0  0  0
   11.0879    7.9790   13.4353 H   0  0  0  0  0  0  0  0  0  0  0  0
    9.4405    6.3265   14.2748 H   0  0  0  0  0  0  0  0  0  0  0  0
    8.6718    4.5934   12.7390 H   0  0  0  0  0  0  0  0  0  0  0  0
    9.5203    4.4878   10.3897 H   0  0  0  0  0  0  0  0  0  0  0  0
  1  3  2  0
  1  4  1  0
  1  5  1  0
  2  4  1  0
  2  6  1  0
  4  9  1  0
  4 15  1  0
  5  6  1  0
  5  8  1  0
  6  7  2  3
  9 10  2  0
  9 14  1  0
 10 11  1  0
 11 12  2  0
 12 13  1  0
 13 14  2  0
 15 16  2  0
 15 20  1  0
 16 17  1  0
 17 18  2  0
 18 19  1  0
 19 20  2  0
  2 21  1  0
  7 22  1  0
  8 23  1  0
  8 24  1  0
  8 25  1  0
 10 26  1  0
 11 27  1  0
 12 28  1  0
 13 29  1  0
 14 30  1  0
 16 31  1  0
 17 32  1  0
 19 33  1  0
 20 34  1  0
 35 36  1  0
 36 37  1  0
 37 38  2  0
 38 39  1  0
 39 40  2  0
 40 41  1  0
 41 42  2  0
 42 37  1  0
 35 43  1  0
 36 44  1  0
 36 45  1  0
 38 46  1  0
 39 47  1  0
 40 48  1  0
 41 49  1  0
 42 50  1  0
 18 35  1  0
M  END
>  <attachment_point>  (54) 
32

>  <score>  (54) 
<NA>

$$$$
4djw
     RDKit          3D

 42 44  0  0  0  0  0  0  0  0999 V2000
   22.4950   11.8750   22.5810 C   0  0  0  0  0  0  0  0  0  0  0  0
   22.5380    9.4930   22.4640 N   0  0  0  0  0  0  0  0  0  0  0  0
   22.3600   13.0630   22.3480 O   0  0  0  0  0  0  0  0  0  0  0  0
   22.3390   10.6680   21.5610 C   0  0  0  0  0  0  0  0  0  0  0  0
   22.7860   11.3350   23.8120 N   0  0  0  0  0  0  0  0  0  0  0  0
   22.7800    9.9140   23.7010 C   0  0  0  0  0  0  0  0  0  0  0  0
   22.9970    9.1110   24.7490 N   0  0  0  0  0  0  0  0  0  0  0  0
   23.0220   12.1410   25.0180 C   0  0  0  0  0  0  0  0  0  0  0  0
   20.9020   10.6270   21.0050 C   0  0  0  0  0  0  0  0  0  0  0  0
   20.2720    9.4140   20.7470 C   0  0  0  0  0  0  0  0  0  0  0  0
   18.9690    9.3760   20.2600 C   0  0  0  0  0  0  0  0  0  0  0  0
   18.2800   10.5440   20.0210 C   0  0  0  0  0  0  0  0  0  0  0  0
   18.8920   11.7530   20.2590 C   0  0  0  0  0  0  0  0  0  0  0  0
   20.1950   11.7970   20.7440 C   0  0  0  0  0  0  0  0  0  0  0  0
   23.4880   10.6920   20.5300 C   0  0  0  0  0  0  0  0  0  0  0  0
   23.2110   10.7890   19.1730 C   0  0  0  0  0  0  0  0  0  0  0  0
   24.2350   10.8650   18.2430 C   0  0  0  0  0  0  0  0  0  0  0  0
   25.5500   10.8410   18.6560 C   0  0  0  0  0  0  0  0  0  0  0  0
   25.8710   10.7460   20.0070 C   0  0  0  0  0  0  0  0  0  0  0  0
   24.8260   10.6610   20.9430 C   0  0  0  0  0  0  0  0  0  0  0  0
    0.0000    0.0000    0.0000 H   0  0  0  0  0  0  0  0  0  0  0  0
    0.0000    0.0000    0.0000 H   0  0  0  0  0  0  0  0  0  0  0  0
    0.0000    0.0000    0.0000 H   0  0  0  0  0  0  0  0  0  0  0  0
    0.0000    0.0000    0.0000 H   0  0  0  0  0  0  0  0  0  0  0  0
    0.0000    0.0000    0.0000 H   0  0  0  0  0  0  0  0  0  0  0  0
    0.0000    0.0000    0.0000 H   0  0  0  0  0  0  0  0  0  0  0  0
    0.0000    0.0000    0.0000 H   0  0  0  0  0  0  0  0  0  0  0  0
    0.0000    0.0000    0.0000 H   0  0  0  0  0  0  0  0  0  0  0  0
    0.0000    0.0000    0.0000 H   0  0  0  0  0  0  0  0  0  0  0  0
    0.0000    0.0000    0.0000 H   0  0  0  0  0  0  0  0  0  0  0  0
    0.0000    0.0000    0.0000 H   0  0  0  0  0  0  0  0  0  0  0  0
    0.0000    0.0000    0.0000 H   0  0  0  0  0  0  0  0  0  0  0  0
    0.0000    0.0000    0.0000 H   0  0  0  0  0  0  0  0  0  0  0  0
    0.0000    0.0000    0.0000 H   0  0  0  0  0  0  0  0  0  0  0  0
   12.4250    5.2720    9.0724 C   0  0  0  0  0  0  0  0  0  0  0  0
   11.2462    5.4234    9.4578 O   0  0  0  0  0  0  0  0  0  0  0  0
   12.7340    4.6523    7.8619 N   0  0  0  0  0  0  0  0  0  0  0  0
   11.6821    4.1507    6.9883 C   0  0  0  0  0  0  0  0  0  0  0  0
   13.7173    4.5048    7.5000 H   0  0  0  0  0  0  0  0  0  0  0  0
   10.6756    4.3521    7.3895 H   0  0  0  0  0  0  0  0  0  0  0  0
   11.8079    3.0668    6.9289 H   0  0  0  0  0  0  0  0  0  0  0  0
   11.8326    4.5770    5.9786 H   0  0  0  0  0  0  0  0  0  0  0  0
  1  3  2  0
  1  4  1  0
  1  5  1  0
  2  4  1  0
  2  6  1  0
  4  9  1  0
  4 15  1  0
  5  6  1  0
  5  8  1  0
  6  7  2  3
  9 10  2  0
  9 14  1  0
 10 11  1  0
 11 12  2  0
 12 13  1  0
 13 14  2  0
 15 16  2  0
 15 20  1  0
 16 17  1  0
 17 18  2  0
 18 19  1  0
 19 20  2  0
  2 21  1  0
  7 22  1  0
  8 23  1  0
  8 24  1  0
  8 25  1  0
 10 26  1  0
 11 27  1  0
 12 28  1  0
 13 29  1  0
 14 30  1  0
 16 31  1  0
 17 32  1  0
 19 33  1  0
 20 34  1  0
 35 36  2  0
 35 37  1  0
 37 38  1  0
 37 39  1  0
 38 40  1  0
 38 41  1  0
 38 42  1  0
 18 35  1  0
M  END
>  <attachment_point>  (55) 
32

>  <score>  (55) 
<NA>

$$$$
4djw
     RDKit          3D

 46 48  0  0  0  0  0  0  0  0999 V2000
   22.4950   11.8750   22.5810 C   0  0  0  0  0  0  0  0  0  0  0  0
   22.5380    9.4930   22.4640 N   0  0  0  0  0  0  0  0  0  0  0  0
   22.3600   13.0630   22.3480 O   0  0  0  0  0  0  0  0  0  0  0  0
   22.3390   10.6680   21.5610 C   0  0  0  0  0  0  0  0  0  0  0  0
   22.7860   11.3350   23.8120 N   0  0  0  0  0  0  0  0  0  0  0  0
   22.7800    9.9140   23.7010 C   0  0  0  0  0  0  0  0  0  0  0  0
   22.9970    9.1110   24.7490 N   0  0  0  0  0  0  0  0  0  0  0  0
   23.0220   12.1410   25.0180 C   0  0  0  0  0  0  0  0  0  0  0  0
   20.9020   10.6270   21.0050 C   0  0  0  0  0  0  0  0  0  0  0  0
   20.2720    9.4140   20.7470 C   0  0  0  0  0  0  0  0  0  0  0  0
   18.9690    9.3760   20.2600 C   0  0  0  0  0  0  0  0  0  0  0  0
   18.2800   10.5440   20.0210 C   0  0  0  0  0  0  0  0  0  0  0  0
   18.8920   11.7530   20.2590 C   0  0  0  0  0  0  0  0  0  0  0  0
   20.1950   11.7970   20.7440 C   0  0  0  0  0  0  0  0  0  0  0  0
   23.4880   10.6920   20.5300 C   0  0  0  0  0  0  0  0  0  0  0  0
   23.2110   10.7890   19.1730 C   0  0  0  0  0  0  0  0  0  0  0  0
   24.2350   10.8650   18.2430 C   0  0  0  0  0  0  0  0  0  0  0  0
   25.5500   10.8410   18.6560 C   0  0  0  0  0  0  0  0  0  0  0  0
   25.8710   10.7460   20.0070 C   0  0  0  0  0  0  0  0  0  0  0  0
   24.8260   10.6610   20.9430 C   0  0  0  0  0  0  0  0  0  0  0  0
    0.0000    0.0000    0.0000 H   0  0  0  0  0  0  0  0  0  0  0  0
    0.0000    0.0000    0.0000 H   0  0  0  0  0  0  0  0  0  0  0  0
    0.0000    0.0000    0.0000 H   0  0  0  0  0  0  0  0  0  0  0  0
    0.0000    0.0000    0.0000 H   0  0  0  0  0  0  0  0  0  0  0  0
    0.0000    0.0000    0.0000 H   0  0  0  0  0  0  0  0  0  0  0  0
    0.0000    0.0000    0.0000 H   0  0  0  0  0  0  0  0  0  0  0  0
    0.0000    0.0000    0.0000 H   0  0  0  0  0  0  0  0  0  0  0  0
    0.0000    0.0000    0.0000 H   0  0  0  0  0  0  0  0  0  0  0  0
    0.0000    0.0000    0.0000 H   0  0  0  0  0  0  0  0  0  0  0  0
    0.0000    0.0000    0.0000 H   0  0  0  0  0  0  0  0  0  0  0  0
    0.0000    0.0000    0.0000 H   0  0  0  0  0  0  0  0  0  0  0  0
    0.0000    0.0000    0.0000 H   0  0  0  0  0  0  0  0  0  0  0  0
    0.0000    0.0000    0.0000 H   0  0  0  0  0  0  0  0  0  0  0  0
    0.0000    0.0000    0.0000 H   0  0  0  0  0  0  0  0  0  0  0  0
   12.4399    5.2783    9.0833 C   0  0  0  0  0  0  0  0  0  0  0  0
   11.2830    4.9432    9.8087 N   0  0  0  0  0  0  0  0  0  0  0  0
   10.6463    5.9082   10.5826 C   0  0  0  0  0  0  0  0  0  0  0  0
   10.6050    3.7587    9.4852 C   0  0  0  0  0  0  0  0  0  0  0  0
   12.3260    6.0609    8.3107 H   0  0  0  0  0  0  0  0  0  0  0  0
   12.8388    4.3785    8.5731 H   0  0  0  0  0  0  0  0  0  0  0  0
    9.7025    6.2410   10.0581 H   0  0  0  0  0  0  0  0  0  0  0  0
   10.2634    5.4413   11.5369 H   0  0  0  0  0  0  0  0  0  0  0  0
   11.3142    6.7375   10.8180 H   0  0  0  0  0  0  0  0  0  0  0  0
   11.2965    2.8794    9.5889 H   0  0  0  0  0  0  0  0  0  0  0  0
    9.7092    3.6550   10.1206 H   0  0  0  0  0  0  0  0  0  0  0  0
   10.2605    3.7613    8.4376 H   0  0  0  0  0  0  0  0  0  0  0  0
  1  3  2  0
  1  4  1  0
  1  5  1  0
  2  4  1  0
  2  6  1  0
  4  9  1  0
  4 15  1  0
  5  6  1  0
  5  8  1  0
  6  7  2  3
  9 10  2  0
  9 14  1  0
 10 11  1  0
 11 12  2  0
 12 13  1  0
 13 14  2  0
 15 16  2  0
 15 20  1  0
 16 17  1  0
 17 18  2  0
 18 19  1  0
 19 20  2  0
  2 21  1  0
  7 22  1  0
  8 23  1  0
  8 24  1  0
  8 25  1  0
 10 26  1  0
 11 27  1  0
 12 28  1  0
 13 29  1  0
 14 30  1  0
 16 31  1  0
 17 32  1  0
 19 33  1  0
 20 34  1  0
 35 36  1  0
 36 37  1  0
 36 38  1  0
 35 39  1  0
 35 40  1  0
 37 41  1  0
 37 42  1  0
 37 43  1  0
 38 44  1  0
 38 45  1  0
 38 46  1  0
 18 35  1  0
M  END
>  <attachment_point>  (56) 
32

>  <score>  (56) 
<NA>

$$$$
4djw
     RDKit          3D

 45 47  0  0  0  0  0  0  0  0999 V2000
   22.4950   11.8750   22.5810 C   0  0  0  0  0  0  0  0  0  0  0  0
   22.5380    9.4930   22.4640 N   0  0  0  0  0  0  0  0  0  0  0  0
   22.3600   13.0630   22.3480 O   0  0  0  0  0  0  0  0  0  0  0  0
   22.3390   10.6680   21.5610 C   0  0  0  0  0  0  0  0  0  0  0  0
   22.7860   11.3350   23.8120 N   0  0  0  0  0  0  0  0  0  0  0  0
   22.7800    9.9140   23.7010 C   0  0  0  0  0  0  0  0  0  0  0  0
   22.9970    9.1110   24.7490 N   0  0  0  0  0  0  0  0  0  0  0  0
   23.0220   12.1410   25.0180 C   0  0  0  0  0  0  0  0  0  0  0  0
   20.9020   10.6270   21.0050 C   0  0  0  0  0  0  0  0  0  0  0  0
   20.2720    9.4140   20.7470 C   0  0  0  0  0  0  0  0  0  0  0  0
   18.9690    9.3760   20.2600 C   0  0  0  0  0  0  0  0  0  0  0  0
   18.2800   10.5440   20.0210 C   0  0  0  0  0  0  0  0  0  0  0  0
   18.8920   11.7530   20.2590 C   0  0  0  0  0  0  0  0  0  0  0  0
   20.1950   11.7970   20.7440 C   0  0  0  0  0  0  0  0  0  0  0  0
   23.4880   10.6920   20.5300 C   0  0  0  0  0  0  0  0  0  0  0  0
   23.2110   10.7890   19.1730 C   0  0  0  0  0  0  0  0  0  0  0  0
   24.2350   10.8650   18.2430 C   0  0  0  0  0  0  0  0  0  0  0  0
   25.5500   10.8410   18.6560 C   0  0  0  0  0  0  0  0  0  0  0  0
   25.8710   10.7460   20.0070 C   0  0  0  0  0  0  0  0  0  0  0  0
   24.8260   10.6610   20.9430 C   0  0  0  0  0  0  0  0  0  0  0  0
    0.0000    0.0000    0.0000 H   0  0  0  0  0  0  0  0  0  0  0  0
    0.0000    0.0000    0.0000 H   0  0  0  0  0  0  0  0  0  0  0  0
    0.0000    0.0000    0.0000 H   0  0  0  0  0  0  0  0  0  0  0  0
    0.0000    0.0000    0.0000 H   0  0  0  0  0  0  0  0  0  0  0  0
    0.0000    0.0000    0.0000 H   0  0  0  0  0  0  0  0  0  0  0  0
    0.0000    0.0000    0.0000 H   0  0  0  0  0  0  0  0  0  0  0  0
    0.0000    0.0000    0.0000 H   0  0  0  0  0  0  0  0  0  0  0  0
    0.0000    0.0000    0.0000 H   0  0  0  0  0  0  0  0  0  0  0  0
    0.0000    0.0000    0.0000 H   0  0  0  0  0  0  0  0  0  0  0  0
    0.0000    0.0000    0.0000 H   0  0  0  0  0  0  0  0  0  0  0  0
    0.0000    0.0000    0.0000 H   0  0  0  0  0  0  0  0  0  0  0  0
    0.0000    0.0000    0.0000 H   0  0  0  0  0  0  0  0  0  0  0  0
    0.0000    0.0000    0.0000 H   0  0  0  0  0  0  0  0  0  0  0  0
    0.0000    0.0000    0.0000 H   0  0  0  0  0  0  0  0  0  0  0  0
   12.4571    5.2856    9.0959 C   0  0  0  0  0  0  0  0  0  0  0  0
   12.6285    4.5185    8.1154 O   0  0  0  0  0  0  0  0  0  0  0  0
   11.1360    5.6891    9.4001 N   0  0  0  0  0  0  0  0  0  0  0  0
   10.0657    5.1956    8.5666 C   0  0  0  0  0  0  0  0  0  0  0  0
   10.8632    6.5648   10.5060 C   0  0  0  0  0  0  0  0  0  0  0  0
    9.0641    5.4603    8.9415 H   0  0  0  0  0  0  0  0  0  0  0  0
   10.2149    4.0786    8.5049 H   0  0  0  0  0  0  0  0  0  0  0  0
   10.2503    5.6274    7.5401 H   0  0  0  0  0  0  0  0  0  0  0  0
   11.2723    6.0874   11.4212 H   0  0  0  0  0  0  0  0  0  0  0  0
    9.7755    6.6623   10.6487 H   0  0  0  0  0  0  0  0  0  0  0  0
   11.3962    7.4989   10.3479 H   0  0  0  0  0  0  0  0  0  0  0  0
  1  3  2  0
  1  4  1  0
  1  5  1  0
  2  4  1  0
  2  6  1  0
  4  9  1  0
  4 15  1  0
  5  6  1  0
  5  8  1  0
  6  7  2  3
  9 10  2  0
  9 14  1  0
 10 11  1  0
 11 12  2  0
 12 13  1  0
 13 14  2  0
 15 16  2  0
 15 20  1  0
 16 17  1  0
 17 18  2  0
 18 19  1  0
 19 20  2  0
  2 21  1  0
  7 22  1  0
  8 23  1  0
  8 24  1  0
  8 25  1  0
 10 26  1  0
 11 27  1  0
 12 28  1  0
 13 29  1  0
 14 30  1  0
 16 31  1  0
 17 32  1  0
 19 33  1  0
 20 34  1  0
 35 36  2  0
 35 37  1  0
 37 38  1  0
 37 39  1  0
 38 40  1  0
 38 41  1  0
 38 42  1  0
 39 43  1  0
 39 44  1  0
 39 45  1  0
 18 35  1  0
M  END
>  <attachment_point>  (57) 
32

>  <score>  (57) 
<NA>

$$$$
4djw
     RDKit          3D

 45 48  0  0  0  0  0  0  0  0999 V2000
   22.4950   11.8750   22.5810 C   0  0  0  0  0  0  0  0  0  0  0  0
   22.5380    9.4930   22.4640 N   0  0  0  0  0  0  0  0  0  0  0  0
   22.3600   13.0630   22.3480 O   0  0  0  0  0  0  0  0  0  0  0  0
   22.3390   10.6680   21.5610 C   0  0  0  0  0  0  0  0  0  0  0  0
   22.7860   11.3350   23.8120 N   0  0  0  0  0  0  0  0  0  0  0  0
   22.7800    9.9140   23.7010 C   0  0  0  0  0  0  0  0  0  0  0  0
   22.9970    9.1110   24.7490 N   0  0  0  0  0  0  0  0  0  0  0  0
   23.0220   12.1410   25.0180 C   0  0  0  0  0  0  0  0  0  0  0  0
   20.9020   10.6270   21.0050 C   0  0  0  0  0  0  0  0  0  0  0  0
   20.2720    9.4140   20.7470 C   0  0  0  0  0  0  0  0  0  0  0  0
   18.9690    9.3760   20.2600 C   0  0  0  0  0  0  0  0  0  0  0  0
   18.2800   10.5440   20.0210 C   0  0  0  0  0  0  0  0  0  0  0  0
   18.8920   11.7530   20.2590 C   0  0  0  0  0  0  0  0  0  0  0  0
   20.1950   11.7970   20.7440 C   0  0  0  0  0  0  0  0  0  0  0  0
   23.4880   10.6920   20.5300 C   0  0  0  0  0  0  0  0  0  0  0  0
   23.2110   10.7890   19.1730 C   0  0  0  0  0  0  0  0  0  0  0  0
   24.2350   10.8650   18.2430 C   0  0  0  0  0  0  0  0  0  0  0  0
   25.5500   10.8410   18.6560 C   0  0  0  0  0  0  0  0  0  0  0  0
   25.8710   10.7460   20.0070 C   0  0  0  0  0  0  0  0  0  0  0  0
   24.8260   10.6610   20.9430 C   0  0  0  0  0  0  0  0  0  0  0  0
    0.0000    0.0000    0.0000 H   0  0  0  0  0  0  0  0  0  0  0  0
    0.0000    0.0000    0.0000 H   0  0  0  0  0  0  0  0  0  0  0  0
    0.0000    0.0000    0.0000 H   0  0  0  0  0  0  0  0  0  0  0  0
    0.0000    0.0000    0.0000 H   0  0  0  0  0  0  0  0  0  0  0  0
    0.0000    0.0000    0.0000 H   0  0  0  0  0  0  0  0  0  0  0  0
    0.0000    0.0000    0.0000 H   0  0  0  0  0  0  0  0  0  0  0  0
    0.0000    0.0000    0.0000 H   0  0  0  0  0  0  0  0  0  0  0  0
    0.0000    0.0000    0.0000 H   0  0  0  0  0  0  0  0  0  0  0  0
    0.0000    0.0000    0.0000 H   0  0  0  0  0  0  0  0  0  0  0  0
    0.0000    0.0000    0.0000 H   0  0  0  0  0  0  0  0  0  0  0  0
    0.0000    0.0000    0.0000 H   0  0  0  0  0  0  0  0  0  0  0  0
    0.0000    0.0000    0.0000 H   0  0  0  0  0  0  0  0  0  0  0  0
    0.0000    0.0000    0.0000 H   0  0  0  0  0  0  0  0  0  0  0  0
    0.0000    0.0000    0.0000 H   0  0  0  0  0  0  0  0  0  0  0  0
   12.4457    5.2808    9.0875 C   0  0  0  0  0  0  0  0  0  0  0  0
   11.1470    5.6905    9.3115 C   0  0  0  0  0  0  0  0  0  0  0  0
   10.1091    5.2126    8.5081 C   0  0  0  0  0  0  0  0  0  0  0  0
   10.4421    4.3260    7.4972 C   0  0  0  0  0  0  0  0  0  0  0  0
   11.7341    3.9073    7.2609 C   0  0  0  0  0  0  0  0  0  0  0  0
   12.0967    2.7739    5.9552 Cl  0  0  0  0  0  0  0  0  0  0  0  0
   12.7432    4.3919    8.0664 C   0  0  0  0  0  0  0  0  0  0  0  0
   10.9353    6.3893   10.1192 H   0  0  0  0  0  0  0  0  0  0  0  0
    9.1036    5.5198    8.6692 H   0  0  0  0  0  0  0  0  0  0  0  0
    9.6831    3.9094    6.8278 H   0  0  0  0  0  0  0  0  0  0  0  0
   13.7577    4.0492    7.8637 H   0  0  0  0  0  0  0  0  0  0  0  0
  1  3  2  0
  1  4  1  0
  1  5  1  0
  2  4  1  0
  2  6  1  0
  4  9  1  0
  4 15  1  0
  5  6  1  0
  5  8  1  0
  6  7  2  3
  9 10  2  0
  9 14  1  0
 10 11  1  0
 11 12  2  0
 12 13  1  0
 13 14  2  0
 15 16  2  0
 15 20  1  0
 16 17  1  0
 17 18  2  0
 18 19  1  0
 19 20  2  0
  2 21  1  0
  7 22  1  0
  8 23  1  0
  8 24  1  0
  8 25  1  0
 10 26  1  0
 11 27  1  0
 12 28  1  0
 13 29  1  0
 14 30  1  0
 16 31  1  0
 17 32  1  0
 19 33  1  0
 20 34  1  0
 35 36  2  0
 36 37  1  0
 37 38  2  0
 38 39  1  0
 39 40  1  0
 39 41  2  0
 41 35  1  0
 36 42  1  0
 37 43  1  0
 38 44  1  0
 41 45  1  0
 18 35  1  0
M  END
>  <attachment_point>  (58) 
32

>  <score>  (58) 
<NA>

$$$$
4djw
     RDKit          3D

 39 41  0  0  0  0  0  0  0  0999 V2000
   22.4950   11.8750   22.5810 C   0  0  0  0  0  0  0  0  0  0  0  0
   22.5380    9.4930   22.4640 N   0  0  0  0  0  0  0  0  0  0  0  0
   22.3600   13.0630   22.3480 O   0  0  0  0  0  0  0  0  0  0  0  0
   22.3390   10.6680   21.5610 C   0  0  0  0  0  0  0  0  0  0  0  0
   22.7860   11.3350   23.8120 N   0  0  0  0  0  0  0  0  0  0  0  0
   22.7800    9.9140   23.7010 C   0  0  0  0  0  0  0  0  0  0  0  0
   22.9970    9.1110   24.7490 N   0  0  0  0  0  0  0  0  0  0  0  0
   23.0220   12.1410   25.0180 C   0  0  0  0  0  0  0  0  0  0  0  0
   20.9020   10.6270   21.0050 C   0  0  0  0  0  0  0  0  0  0  0  0
   20.2720    9.4140   20.7470 C   0  0  0  0  0  0  0  0  0  0  0  0
   18.9690    9.3760   20.2600 C   0  0  0  0  0  0  0  0  0  0  0  0
   18.2800   10.5440   20.0210 C   0  0  0  0  0  0  0  0  0  0  0  0
   18.8920   11.7530   20.2590 C   0  0  0  0  0  0  0  0  0  0  0  0
   20.1950   11.7970   20.7440 C   0  0  0  0  0  0  0  0  0  0  0  0
   23.4880   10.6920   20.5300 C   0  0  0  0  0  0  0  0  0  0  0  0
   23.2110   10.7890   19.1730 C   0  0  0  0  0  0  0  0  0  0  0  0
   24.2350   10.8650   18.2430 C   0  0  0  0  0  0  0  0  0  0  0  0
   25.5500   10.8410   18.6560 C   0  0  0  0  0  0  0  0  0  0  0  0
   25.8710   10.7460   20.0070 C   0  0  0  0  0  0  0  0  0  0  0  0
   24.8260   10.6610   20.9430 C   0  0  0  0  0  0  0  0  0  0  0  0
    0.0000    0.0000    0.0000 H   0  0  0  0  0  0  0  0  0  0  0  0
    0.0000    0.0000    0.0000 H   0  0  0  0  0  0  0  0  0  0  0  0
    0.0000    0.0000    0.0000 H   0  0  0  0  0  0  0  0  0  0  0  0
    0.0000    0.0000    0.0000 H   0  0  0  0  0  0  0  0  0  0  0  0
    0.0000    0.0000    0.0000 H   0  0  0  0  0  0  0  0  0  0  0  0
    0.0000    0.0000    0.0000 H   0  0  0  0  0  0  0  0  0  0  0  0
    0.0000    0.0000    0.0000 H   0  0  0  0  0  0  0  0  0  0  0  0
    0.0000    0.0000    0.0000 H   0  0  0  0  0  0  0  0  0  0  0  0
    0.0000    0.0000    0.0000 H   0  0  0  0  0  0  0  0  0  0  0  0
    0.0000    0.0000    0.0000 H   0  0  0  0  0  0  0  0  0  0  0  0
    0.0000    0.0000    0.0000 H   0  0  0  0  0  0  0  0  0  0  0  0
    0.0000    0.0000    0.0000 H   0  0  0  0  0  0  0  0  0  0  0  0
    0.0000    0.0000    0.0000 H   0  0  0  0  0  0  0  0  0  0  0  0
    0.0000    0.0000    0.0000 H   0  0  0  0  0  0  0  0  0  0  0  0
   12.5153    5.3103    9.1384 S   0  0  0  0  0  0  0  0  0  0  0  0
   10.7419    5.4664    9.4179 C   0  0  0  0  0  0  0  0  0  0  0  0
   10.2139    4.5262    9.1518 H   0  0  0  0  0  0  0  0  0  0  0  0
   10.5739    5.7258   10.4889 H   0  0  0  0  0  0  0  0  0  0  0  0
   10.3340    6.2581    8.7450 H   0  0  0  0  0  0  0  0  0  0  0  0
  1  3  2  0
  1  4  1  0
  1  5  1  0
  2  4  1  0
  2  6  1  0
  4  9  1  0
  4 15  1  0
  5  6  1  0
  5  8  1  0
  6  7  2  3
  9 10  2  0
  9 14  1  0
 10 11  1  0
 11 12  2  0
 12 13  1  0
 13 14  2  0
 15 16  2  0
 15 20  1  0
 16 17  1  0
 17 18  2  0
 18 19  1  0
 19 20  2  0
  2 21  1  0
  7 22  1  0
  8 23  1  0
  8 24  1  0
  8 25  1  0
 10 26  1  0
 11 27  1  0
 12 28  1  0
 13 29  1  0
 14 30  1  0
 16 31  1  0
 17 32  1  0
 19 33  1  0
 20 34  1  0
 35 36  1  0
 36 37  1  0
 36 38  1  0
 36 39  1  0
 18 35  1  0
M  END
>  <attachment_point>  (59) 
32

>  <score>  (59) 
<NA>

$$$$
4djw
     RDKit          3D

 47 50  0  0  0  0  0  0  0  0999 V2000
   22.4950   11.8750   22.5810 C   0  0  0  0  0  0  0  0  0  0  0  0
   22.5380    9.4930   22.4640 N   0  0  0  0  0  0  0  0  0  0  0  0
   22.3600   13.0630   22.3480 O   0  0  0  0  0  0  0  0  0  0  0  0
   22.3390   10.6680   21.5610 C   0  0  0  0  0  0  0  0  0  0  0  0
   22.7860   11.3350   23.8120 N   0  0  0  0  0  0  0  0  0  0  0  0
   22.7800    9.9140   23.7010 C   0  0  0  0  0  0  0  0  0  0  0  0
   22.9970    9.1110   24.7490 N   0  0  0  0  0  0  0  0  0  0  0  0
   23.0220   12.1410   25.0180 C   0  0  0  0  0  0  0  0  0  0  0  0
   20.9020   10.6270   21.0050 C   0  0  0  0  0  0  0  0  0  0  0  0
   20.2720    9.4140   20.7470 C   0  0  0  0  0  0  0  0  0  0  0  0
   18.9690    9.3760   20.2600 C   0  0  0  0  0  0  0  0  0  0  0  0
   18.2800   10.5440   20.0210 C   0  0  0  0  0  0  0  0  0  0  0  0
   18.8920   11.7530   20.2590 C   0  0  0  0  0  0  0  0  0  0  0  0
   20.1950   11.7970   20.7440 C   0  0  0  0  0  0  0  0  0  0  0  0
   23.4880   10.6920   20.5300 C   0  0  0  0  0  0  0  0  0  0  0  0
   23.2110   10.7890   19.1730 C   0  0  0  0  0  0  0  0  0  0  0  0
   24.2350   10.8650   18.2430 C   0  0  0  0  0  0  0  0  0  0  0  0
   25.5500   10.8410   18.6560 C   0  0  0  0  0  0  0  0  0  0  0  0
   25.8710   10.7460   20.0070 C   0  0  0  0  0  0  0  0  0  0  0  0
   24.8260   10.6610   20.9430 C   0  0  0  0  0  0  0  0  0  0  0  0
    0.0000    0.0000    0.0000 H   0  0  0  0  0  0  0  0  0  0  0  0
    0.0000    0.0000    0.0000 H   0  0  0  0  0  0  0  0  0  0  0  0
    0.0000    0.0000    0.0000 H   0  0  0  0  0  0  0  0  0  0  0  0
    0.0000    0.0000    0.0000 H   0  0  0  0  0  0  0  0  0  0  0  0
    0.0000    0.0000    0.0000 H   0  0  0  0  0  0  0  0  0  0  0  0
    0.0000    0.0000    0.0000 H   0  0  0  0  0  0  0  0  0  0  0  0
    0.0000    0.0000    0.0000 H   0  0  0  0  0  0  0  0  0  0  0  0
    0.0000    0.0000    0.0000 H   0  0  0  0  0  0  0  0  0  0  0  0
    0.0000    0.0000    0.0000 H   0  0  0  0  0  0  0  0  0  0  0  0
    0.0000    0.0000    0.0000 H   0  0  0  0  0  0  0  0  0  0  0  0
    0.0000    0.0000    0.0000 H   0  0  0  0  0  0  0  0  0  0  0  0
    0.0000    0.0000    0.0000 H   0  0  0  0  0  0  0  0  0  0  0  0
    0.0000    0.0000    0.0000 H   0  0  0  0  0  0  0  0  0  0  0  0
    0.0000    0.0000    0.0000 H   0  0  0  0  0  0  0  0  0  0  0  0
   12.3258    5.2299    9.0000 C   0  0  0  0  0  0  0  0  0  0  0  0
   12.4128    4.0712    8.9005 O   0  0  0  0  0  0  0  0  0  0  0  0
   11.5580    6.3353    8.6344 C   0  0  0  0  0  0  0  0  0  0  0  0
   10.4019    6.1770    7.8355 C   0  0  0  0  0  0  0  0  0  0  0  0
    9.6530    7.2564    7.4790 C   0  0  0  0  0  0  0  0  0  0  0  0
    9.9667    8.5362    7.8644 C   0  0  0  0  0  0  0  0  0  0  0  0
   11.0859    8.6999    8.6392 C   0  0  0  0  0  0  0  0  0  0  0  0
   11.8543    7.6357    9.0108 C   0  0  0  0  0  0  0  0  0  0  0  0
   10.2015    5.1439    7.5598 H   0  0  0  0  0  0  0  0  0  0  0  0
    8.7803    7.0780    6.8679 H   0  0  0  0  0  0  0  0  0  0  0  0
    9.3504    9.4002    7.5678 H   0  0  0  0  0  0  0  0  0  0  0  0
   11.3755    9.6856    8.9684 H   0  0  0  0  0  0  0  0  0  0  0  0
   12.7362    7.8648    9.6351 H   0  0  0  0  0  0  0  0  0  0  0  0
  1  3  2  0
  1  4  1  0
  1  5  1  0
  2  4  1  0
  2  6  1  0
  4  9  1  0
  4 15  1  0
  5  6  1  0
  5  8  1  0
  6  7  2  3
  9 10  2  0
  9 14  1  0
 10 11  1  0
 11 12  2  0
 12 13  1  0
 13 14  2  0
 15 16  2  0
 15 20  1  0
 16 17  1  0
 17 18  2  0
 18 19  1  0
 19 20  2  0
  2 21  1  0
  7 22  1  0
  8 23  1  0
  8 24  1  0
  8 25  1  0
 10 26  1  0
 11 27  1  0
 12 28  1  0
 13 29  1  0
 14 30  1  0
 16 31  1  0
 17 32  1  0
 19 33  1  0
 20 34  1  0
 35 36  2  0
 35 37  1  0
 37 38  2  0
 38 39  1  0
 39 40  2  0
 40 41  1  0
 41 42  2  0
 42 37  1  0
 38 43  1  0
 39 44  1  0
 40 45  1  0
 41 46  1  0
 42 47  1  0
 18 35  1  0
M  END
>  <attachment_point>  (60) 
32

>  <score>  (60) 
<NA>

$$$$
4djw
     RDKit          3D

 53 56  0  0  0  0  0  0  0  0999 V2000
   22.4950   11.8750   22.5810 C   0  0  0  0  0  0  0  0  0  0  0  0
   22.5380    9.4930   22.4640 N   0  0  0  0  0  0  0  0  0  0  0  0
   22.3600   13.0630   22.3480 O   0  0  0  0  0  0  0  0  0  0  0  0
   22.3390   10.6680   21.5610 C   0  0  0  0  0  0  0  0  0  0  0  0
   22.7860   11.3350   23.8120 N   0  0  0  0  0  0  0  0  0  0  0  0
   22.7800    9.9140   23.7010 C   0  0  0  0  0  0  0  0  0  0  0  0
   22.9970    9.1110   24.7490 N   0  0  0  0  0  0  0  0  0  0  0  0
   23.0220   12.1410   25.0180 C   0  0  0  0  0  0  0  0  0  0  0  0
   20.9020   10.6270   21.0050 C   0  0  0  0  0  0  0  0  0  0  0  0
   20.2720    9.4140   20.7470 C   0  0  0  0  0  0  0  0  0  0  0  0
   18.9690    9.3760   20.2600 C   0  0  0  0  0  0  0  0  0  0  0  0
   18.2800   10.5440   20.0210 C   0  0  0  0  0  0  0  0  0  0  0  0
   18.8920   11.7530   20.2590 C   0  0  0  0  0  0  0  0  0  0  0  0
   20.1950   11.7970   20.7440 C   0  0  0  0  0  0  0  0  0  0  0  0
   23.4880   10.6920   20.5300 C   0  0  0  0  0  0  0  0  0  0  0  0
   23.2110   10.7890   19.1730 C   0  0  0  0  0  0  0  0  0  0  0  0
   24.2350   10.8650   18.2430 C   0  0  0  0  0  0  0  0  0  0  0  0
   25.5500   10.8410   18.6560 C   0  0  0  0  0  0  0  0  0  0  0  0
   25.8710   10.7460   20.0070 C   0  0  0  0  0  0  0  0  0  0  0  0
   24.8260   10.6610   20.9430 C   0  0  0  0  0  0  0  0  0  0  0  0
    0.0000    0.0000    0.0000 H   0  0  0  0  0  0  0  0  0  0  0  0
    0.0000    0.0000    0.0000 H   0  0  0  0  0  0  0  0  0  0  0  0
    0.0000    0.0000    0.0000 H   0  0  0  0  0  0  0  0  0  0  0  0
    0.0000    0.0000    0.0000 H   0  0  0  0  0  0  0  0  0  0  0  0
    0.0000    0.0000    0.0000 H   0  0  0  0  0  0  0  0  0  0  0  0
    0.0000    0.0000    0.0000 H   0  0  0  0  0  0  0  0  0  0  0  0
    0.0000    0.0000    0.0000 H   0  0  0  0  0  0  0  0  0  0  0  0
    0.0000    0.0000    0.0000 H   0  0  0  0  0  0  0  0  0  0  0  0
    0.0000    0.0000    0.0000 H   0  0  0  0  0  0  0  0  0  0  0  0
    0.0000    0.0000    0.0000 H   0  0  0  0  0  0  0  0  0  0  0  0
    0.0000    0.0000    0.0000 H   0  0  0  0  0  0  0  0  0  0  0  0
    0.0000    0.0000    0.0000 H   0  0  0  0  0  0  0  0  0  0  0  0
    0.0000    0.0000    0.0000 H   0  0  0  0  0  0  0  0  0  0  0  0
    0.0000    0.0000    0.0000 H   0  0  0  0  0  0  0  0  0  0  0  0
   12.4537    5.2842    9.0934 C   0  0  0  0  0  0  0  0  0  0  0  0
   11.2280    5.5160    9.7477 N   0  0  0  0  0  0  0  0  0  0  0  0
   10.9874    4.9383   10.9885 C   0  0  0  0  0  0  0  0  0  0  0  0
    9.7693    5.6323   11.6171 C   0  0  0  0  0  0  0  0  0  0  0  0
    9.8349    7.0751   11.1418 C   0  0  0  0  0  0  0  0  0  0  0  0
    9.3578    7.0981    9.6888 C   0  0  0  0  0  0  0  0  0  0  0  0
   10.1445    5.9847    8.9878 C   0  0  0  0  0  0  0  0  0  0  0  0
   12.4839    5.8831    8.1574 H   0  0  0  0  0  0  0  0  0  0  0  0
   12.5982    4.2285    8.8167 H   0  0  0  0  0  0  0  0  0  0  0  0
   10.7872    3.8442   10.9719 H   0  0  0  0  0  0  0  0  0  0  0  0
   11.8283    5.1320   11.6851 H   0  0  0  0  0  0  0  0  0  0  0  0
    9.7916    5.5664   12.7131 H   0  0  0  0  0  0  0  0  0  0  0  0
    8.8799    5.1085   11.1847 H   0  0  0  0  0  0  0  0  0  0  0  0
   10.9147    7.3870   11.0913 H   0  0  0  0  0  0  0  0  0  0  0  0
    9.2467    7.7478   11.7758 H   0  0  0  0  0  0  0  0  0  0  0  0
    9.6478    8.0945    9.2710 H   0  0  0  0  0  0  0  0  0  0  0  0
    8.2797    6.9504    9.6288 H   0  0  0  0  0  0  0  0  0  0  0  0
    9.3980    5.1458    8.8706 H   0  0  0  0  0  0  0  0  0  0  0  0
   10.4634    6.2841    7.9810 H   0  0  0  0  0  0  0  0  0  0  0  0
  1  3  2  0
  1  4  1  0
  1  5  1  0
  2  4  1  0
  2  6  1  0
  4  9  1  0
  4 15  1  0
  5  6  1  0
  5  8  1  0
  6  7  2  3
  9 10  2  0
  9 14  1  0
 10 11  1  0
 11 12  2  0
 12 13  1  0
 13 14  2  0
 15 16  2  0
 15 20  1  0
 16 17  1  0
 17 18  2  0
 18 19  1  0
 19 20  2  0
  2 21  1  0
  7 22  1  0
  8 23  1  0
  8 24  1  0
  8 25  1  0
 10 26  1  0
 11 27  1  0
 12 28  1  0
 13 29  1  0
 14 30  1  0
 16 31  1  0
 17 32  1  0
 19 33  1  0
 20 34  1  0
 35 36  1  0
 36 37  1  0
 37 38  1  0
 38 39  1  0
 39 40  1  0
 40 41  1  0
 41 36  1  0
 35 42  1  0
 35 43  1  0
 37 44  1  0
 37 45  1  0
 38 46  1  0
 38 47  1  0
 39 48  1  0
 39 49  1  0
 40 50  1  0
 40 51  1  0
 41 52  1  0
 41 53  1  0
 18 35  1  0
M  END
>  <attachment_point>  (61) 
32

>  <score>  (61) 
<NA>

$$$$
4djw
     RDKit          3D

 48 51  0  0  0  0  0  0  0  0999 V2000
   22.4950   11.8750   22.5810 C   0  0  0  0  0  0  0  0  0  0  0  0
   22.5380    9.4930   22.4640 N   0  0  0  0  0  0  0  0  0  0  0  0
   22.3600   13.0630   22.3480 O   0  0  0  0  0  0  0  0  0  0  0  0
   22.3390   10.6680   21.5610 C   0  0  0  0  0  0  0  0  0  0  0  0
   22.7860   11.3350   23.8120 N   0  0  0  0  0  0  0  0  0  0  0  0
   22.7800    9.9140   23.7010 C   0  0  0  0  0  0  0  0  0  0  0  0
   22.9970    9.1110   24.7490 N   0  0  0  0  0  0  0  0  0  0  0  0
   23.0220   12.1410   25.0180 C   0  0  0  0  0  0  0  0  0  0  0  0
   20.9020   10.6270   21.0050 C   0  0  0  0  0  0  0  0  0  0  0  0
   20.2720    9.4140   20.7470 C   0  0  0  0  0  0  0  0  0  0  0  0
   18.9690    9.3760   20.2600 C   0  0  0  0  0  0  0  0  0  0  0  0
   18.2800   10.5440   20.0210 C   0  0  0  0  0  0  0  0  0  0  0  0
   18.8920   11.7530   20.2590 C   0  0  0  0  0  0  0  0  0  0  0  0
   20.1950   11.7970   20.7440 C   0  0  0  0  0  0  0  0  0  0  0  0
   23.4880   10.6920   20.5300 C   0  0  0  0  0  0  0  0  0  0  0  0
   23.2110   10.7890   19.1730 C   0  0  0  0  0  0  0  0  0  0  0  0
   24.2350   10.8650   18.2430 C   0  0  0  0  0  0  0  0  0  0  0  0
   25.5500   10.8410   18.6560 C   0  0  0  0  0  0  0  0  0  0  0  0
   25.8710   10.7460   20.0070 C   0  0  0  0  0  0  0  0  0  0  0  0
   24.8260   10.6610   20.9430 C   0  0  0  0  0  0  0  0  0  0  0  0
    0.0000    0.0000    0.0000 H   0  0  0  0  0  0  0  0  0  0  0  0
    0.0000    0.0000    0.0000 H   0  0  0  0  0  0  0  0  0  0  0  0
    0.0000    0.0000    0.0000 H   0  0  0  0  0  0  0  0  0  0  0  0
    0.0000    0.0000    0.0000 H   0  0  0  0  0  0  0  0  0  0  0  0
    0.0000    0.0000    0.0000 H   0  0  0  0  0  0  0  0  0  0  0  0
    0.0000    0.0000    0.0000 H   0  0  0  0  0  0  0  0  0  0  0  0
    0.0000    0.0000    0.0000 H   0  0  0  0  0  0  0  0  0  0  0  0
    0.0000    0.0000    0.0000 H   0  0  0  0  0  0  0  0  0  0  0  0
    0.0000    0.0000    0.0000 H   0  0  0  0  0  0  0  0  0  0  0  0
    0.0000    0.0000    0.0000 H   0  0  0  0  0  0  0  0  0  0  0  0
    0.0000    0.0000    0.0000 H   0  0  0  0  0  0  0  0  0  0  0  0
    0.0000    0.0000    0.0000 H   0  0  0  0  0  0  0  0  0  0  0  0
    0.0000    0.0000    0.0000 H   0  0  0  0  0  0  0  0  0  0  0  0
    0.0000    0.0000    0.0000 H   0  0  0  0  0  0  0  0  0  0  0  0
   12.4459    5.2809    9.0877 C   0  0  0  0  0  0  0  0  0  0  0  0
   11.8994    3.9571    9.5656 C   0  0  0  0  0  0  0  0  0  0  0  0
   10.4190    4.1260    9.7558 C   0  0  0  0  0  0  0  0  0  0  0  0
   10.1096    5.3754    8.9261 C   0  0  0  0  0  0  0  0  0  0  0  0
   11.3042    6.2264    9.3806 C   0  0  0  0  0  0  0  0  0  0  0  0
   12.7030    5.2553    8.0050 H   0  0  0  0  0  0  0  0  0  0  0  0
   12.0997    3.1630    8.8225 H   0  0  0  0  0  0  0  0  0  0  0  0
   12.3915    3.7391   10.5384 H   0  0  0  0  0  0  0  0  0  0  0  0
   10.2645    4.4374   10.8240 H   0  0  0  0  0  0  0  0  0  0  0  0
    9.8188    3.2698    9.4611 H   0  0  0  0  0  0  0  0  0  0  0  0
    9.1669    5.8586    9.2561 H   0  0  0  0  0  0  0  0  0  0  0  0
   10.1498    5.1551    7.8536 H   0  0  0  0  0  0  0  0  0  0  0  0
   11.2133    6.2940   10.4807 H   0  0  0  0  0  0  0  0  0  0  0  0
   11.3626    7.1761    8.8591 H   0  0  0  0  0  0  0  0  0  0  0  0
  1  3  2  0
  1  4  1  0
  1  5  1  0
  2  4  1  0
  2  6  1  0
  4  9  1  0
  4 15  1  0
  5  6  1  0
  5  8  1  0
  6  7  2  3
  9 10  2  0
  9 14  1  0
 10 11  1  0
 11 12  2  0
 12 13  1  0
 13 14  2  0
 15 16  2  0
 15 20  1  0
 16 17  1  0
 17 18  2  0
 18 19  1  0
 19 20  2  0
  2 21  1  0
  7 22  1  0
  8 23  1  0
  8 24  1  0
  8 25  1  0
 10 26  1  0
 11 27  1  0
 12 28  1  0
 13 29  1  0
 14 30  1  0
 16 31  1  0
 17 32  1  0
 19 33  1  0
 20 34  1  0
 35 36  1  0
 36 37  1  0
 37 38  1  0
 38 39  1  0
 39 35  1  0
 35 40  1  0
 36 41  1  0
 36 42  1  0
 37 43  1  0
 37 44  1  0
 38 45  1  0
 38 46  1  0
 39 47  1  0
 39 48  1  0
 18 35  1  0
M  END
>  <attachment_point>  (62) 
32

>  <score>  (62) 
<NA>

$$$$
4djw
     RDKit          3D

 45 48  0  0  0  0  0  0  0  0999 V2000
   22.4950   11.8750   22.5810 C   0  0  0  0  0  0  0  0  0  0  0  0
   22.5380    9.4930   22.4640 N   0  0  0  0  0  0  0  0  0  0  0  0
   22.3600   13.0630   22.3480 O   0  0  0  0  0  0  0  0  0  0  0  0
   22.3390   10.6680   21.5610 C   0  0  0  0  0  0  0  0  0  0  0  0
   22.7860   11.3350   23.8120 N   0  0  0  0  0  0  0  0  0  0  0  0
   22.7800    9.9140   23.7010 C   0  0  0  0  0  0  0  0  0  0  0  0
   22.9970    9.1110   24.7490 N   0  0  0  0  0  0  0  0  0  0  0  0
   23.0220   12.1410   25.0180 C   0  0  0  0  0  0  0  0  0  0  0  0
   20.9020   10.6270   21.0050 C   0  0  0  0  0  0  0  0  0  0  0  0
   20.2720    9.4140   20.7470 C   0  0  0  0  0  0  0  0  0  0  0  0
   18.9690    9.3760   20.2600 C   0  0  0  0  0  0  0  0  0  0  0  0
   18.2800   10.5440   20.0210 C   0  0  0  0  0  0  0  0  0  0  0  0
   18.8920   11.7530   20.2590 C   0  0  0  0  0  0  0  0  0  0  0  0
   20.1950   11.7970   20.7440 C   0  0  0  0  0  0  0  0  0  0  0  0
   23.4880   10.6920   20.5300 C   0  0  0  0  0  0  0  0  0  0  0  0
   23.2110   10.7890   19.1730 C   0  0  0  0  0  0  0  0  0  0  0  0
   24.2350   10.8650   18.2430 C   0  0  0  0  0  0  0  0  0  0  0  0
   25.5500   10.8410   18.6560 C   0  0  0  0  0  0  0  0  0  0  0  0
   25.8710   10.7460   20.0070 C   0  0  0  0  0  0  0  0  0  0  0  0
   24.8260   10.6610   20.9430 C   0  0  0  0  0  0  0  0  0  0  0  0
    0.0000    0.0000    0.0000 H   0  0  0  0  0  0  0  0  0  0  0  0
    0.0000    0.0000    0.0000 H   0  0  0  0  0  0  0  0  0  0  0  0
    0.0000    0.0000    0.0000 H   0  0  0  0  0  0  0  0  0  0  0  0
    0.0000    0.0000    0.0000 H   0  0  0  0  0  0  0  0  0  0  0  0
    0.0000    0.0000    0.0000 H   0  0  0  0  0  0  0  0  0  0  0  0
    0.0000    0.0000    0.0000 H   0  0  0  0  0  0  0  0  0  0  0  0
    0.0000    0.0000    0.0000 H   0  0  0  0  0  0  0  0  0  0  0  0
    0.0000    0.0000    0.0000 H   0  0  0  0  0  0  0  0  0  0  0  0
    0.0000    0.0000    0.0000 H   0  0  0  0  0  0  0  0  0  0  0  0
    0.0000    0.0000    0.0000 H   0  0  0  0  0  0  0  0  0  0  0  0
    0.0000    0.0000    0.0000 H   0  0  0  0  0  0  0  0  0  0  0  0
    0.0000    0.0000    0.0000 H   0  0  0  0  0  0  0  0  0  0  0  0
    0.0000    0.0000    0.0000 H   0  0  0  0  0  0  0  0  0  0  0  0
    0.0000    0.0000    0.0000 H   0  0  0  0  0  0  0  0  0  0  0  0
   12.3881    5.2563    9.0455 C   0  0  0  0  0  0  0  0  0  0  0  0
   11.1512    5.4284    9.5385 C   0  0  0  0  0  0  0  0  0  0  0  0
   10.1027    4.9603    8.7266 C   0  0  0  0  0  0  0  0  0  0  0  0
   10.3657    4.3696    7.5115 C   0  0  0  0  0  0  0  0  0  0  0  0
   11.6735    4.2293    7.0735 C   0  0  0  0  0  0  0  0  0  0  0  0
   12.7229    4.6910    7.8727 C   0  0  0  0  0  0  0  0  0  0  0  0
   14.3519    4.5117    7.3180 Cl  0  0  0  0  0  0  0  0  0  0  0  0
   10.9659    5.8904   10.4865 H   0  0  0  0  0  0  0  0  0  0  0  0
    9.0973    5.0815    9.0901 H   0  0  0  0  0  0  0  0  0  0  0  0
    9.5229    4.0264    6.9250 H   0  0  0  0  0  0  0  0  0  0  0  0
   11.8170    3.7601    6.1163 H   0  0  0  0  0  0  0  0  0  0  0  0
  1  3  2  0
  1  4  1  0
  1  5  1  0
  2  4  1  0
  2  6  1  0
  4  9  1  0
  4 15  1  0
  5  6  1  0
  5  8  1  0
  6  7  2  3
  9 10  2  0
  9 14  1  0
 10 11  1  0
 11 12  2  0
 12 13  1  0
 13 14  2  0
 15 16  2  0
 15 20  1  0
 16 17  1  0
 17 18  2  0
 18 19  1  0
 19 20  2  0
  2 21  1  0
  7 22  1  0
  8 23  1  0
  8 24  1  0
  8 25  1  0
 10 26  1  0
 11 27  1  0
 12 28  1  0
 13 29  1  0
 14 30  1  0
 16 31  1  0
 17 32  1  0
 19 33  1  0
 20 34  1  0
 35 36  2  0
 36 37  1  0
 37 38  2  0
 38 39  1  0
 39 40  2  0
 40 41  1  0
 40 35  1  0
 36 42  1  0
 37 43  1  0
 38 44  1  0
 39 45  1  0
 18 35  1  0
M  END
>  <attachment_point>  (63) 
32

>  <score>  (63) 
<NA>

$$$$
4djw
     RDKit          3D

 40 42  0  0  0  0  0  0  0  0999 V2000
   22.4950   11.8750   22.5810 C   0  0  0  0  0  0  0  0  0  0  0  0
   22.5380    9.4930   22.4640 N   0  0  0  0  0  0  0  0  0  0  0  0
   22.3600   13.0630   22.3480 O   0  0  0  0  0  0  0  0  0  0  0  0
   22.3390   10.6680   21.5610 C   0  0  0  0  0  0  0  0  0  0  0  0
   22.7860   11.3350   23.8120 N   0  0  0  0  0  0  0  0  0  0  0  0
   22.7800    9.9140   23.7010 C   0  0  0  0  0  0  0  0  0  0  0  0
   22.9970    9.1110   24.7490 N   0  0  0  0  0  0  0  0  0  0  0  0
   23.0220   12.1410   25.0180 C   0  0  0  0  0  0  0  0  0  0  0  0
   20.9020   10.6270   21.0050 C   0  0  0  0  0  0  0  0  0  0  0  0
   20.2720    9.4140   20.7470 C   0  0  0  0  0  0  0  0  0  0  0  0
   18.9690    9.3760   20.2600 C   0  0  0  0  0  0  0  0  0  0  0  0
   18.2800   10.5440   20.0210 C   0  0  0  0  0  0  0  0  0  0  0  0
   18.8920   11.7530   20.2590 C   0  0  0  0  0  0  0  0  0  0  0  0
   20.1950   11.7970   20.7440 C   0  0  0  0  0  0  0  0  0  0  0  0
   23.4880   10.6920   20.5300 C   0  0  0  0  0  0  0  0  0  0  0  0
   23.2110   10.7890   19.1730 C   0  0  0  0  0  0  0  0  0  0  0  0
   24.2350   10.8650   18.2430 C   0  0  0  0  0  0  0  0  0  0  0  0
   25.5500   10.8410   18.6560 C   0  0  0  0  0  0  0  0  0  0  0  0
   25.8710   10.7460   20.0070 C   0  0  0  0  0  0  0  0  0  0  0  0
   24.8260   10.6610   20.9430 C   0  0  0  0  0  0  0  0  0  0  0  0
    0.0000    0.0000    0.0000 H   0  0  0  0  0  0  0  0  0  0  0  0
    0.0000    0.0000    0.0000 H   0  0  0  0  0  0  0  0  0  0  0  0
    0.0000    0.0000    0.0000 H   0  0  0  0  0  0  0  0  0  0  0  0
    0.0000    0.0000    0.0000 H   0  0  0  0  0  0  0  0  0  0  0  0
    0.0000    0.0000    0.0000 H   0  0  0  0  0  0  0  0  0  0  0  0
    0.0000    0.0000    0.0000 H   0  0  0  0  0  0  0  0  0  0  0  0
    0.0000    0.0000    0.0000 H   0  0  0  0  0  0  0  0  0  0  0  0
    0.0000    0.0000    0.0000 H   0  0  0  0  0  0  0  0  0  0  0  0
    0.0000    0.0000    0.0000 H   0  0  0  0  0  0  0  0  0  0  0  0
    0.0000    0.0000    0.0000 H   0  0  0  0  0  0  0  0  0  0  0  0
    0.0000    0.0000    0.0000 H   0  0  0  0  0  0  0  0  0  0  0  0
    0.0000    0.0000    0.0000 H   0  0  0  0  0  0  0  0  0  0  0  0
    0.0000    0.0000    0.0000 H   0  0  0  0  0  0  0  0  0  0  0  0
    0.0000    0.0000    0.0000 H   0  0  0  0  0  0  0  0  0  0  0  0
   12.4531    5.2839    9.0930 C   0  0  0  0  0  0  0  0  0  0  0  0
   12.3184    4.0741    8.7879 O   0  0  0  0  0  0  0  0  0  0  0  0
   11.4759    6.2055    8.6193 N   0  0  0  0  0  0  0  0  0  0  0  0
   10.4159    5.8099    7.8551 O   0  0  0  0  0  0  0  0  0  0  0  0
   11.5755    7.2269    8.8677 H   0  0  0  0  0  0  0  0  0  0  0  0
    9.5984    6.1480    8.2805 H   0  0  0  0  0  0  0  0  0  0  0  0
  1  3  2  0
  1  4  1  0
  1  5  1  0
  2  4  1  0
  2  6  1  0
  4  9  1  0
  4 15  1  0
  5  6  1  0
  5  8  1  0
  6  7  2  3
  9 10  2  0
  9 14  1  0
 10 11  1  0
 11 12  2  0
 12 13  1  0
 13 14  2  0
 15 16  2  0
 15 20  1  0
 16 17  1  0
 17 18  2  0
 18 19  1  0
 19 20  2  0
  2 21  1  0
  7 22  1  0
  8 23  1  0
  8 24  1  0
  8 25  1  0
 10 26  1  0
 11 27  1  0
 12 28  1  0
 13 29  1  0
 14 30  1  0
 16 31  1  0
 17 32  1  0
 19 33  1  0
 20 34  1  0
 35 36  2  0
 35 37  1  0
 37 38  1  0
 37 39  1  0
 38 40  1  0
 18 35  1  0
M  END
>  <attachment_point>  (64) 
32

>  <score>  (64) 
<NA>

$$$$
4djw
     RDKit          3D

 42 44  0  0  0  0  0  0  0  0999 V2000
   22.4950   11.8750   22.5810 C   0  0  0  0  0  0  0  0  0  0  0  0
   22.5380    9.4930   22.4640 N   0  0  0  0  0  0  0  0  0  0  0  0
   22.3600   13.0630   22.3480 O   0  0  0  0  0  0  0  0  0  0  0  0
   22.3390   10.6680   21.5610 C   0  0  0  0  0  0  0  0  0  0  0  0
   22.7860   11.3350   23.8120 N   0  0  0  0  0  0  0  0  0  0  0  0
   22.7800    9.9140   23.7010 C   0  0  0  0  0  0  0  0  0  0  0  0
   22.9970    9.1110   24.7490 N   0  0  0  0  0  0  0  0  0  0  0  0
   23.0220   12.1410   25.0180 C   0  0  0  0  0  0  0  0  0  0  0  0
   20.9020   10.6270   21.0050 C   0  0  0  0  0  0  0  0  0  0  0  0
   20.2720    9.4140   20.7470 C   0  0  0  0  0  0  0  0  0  0  0  0
   18.9690    9.3760   20.2600 C   0  0  0  0  0  0  0  0  0  0  0  0
   18.2800   10.5440   20.0210 C   0  0  0  0  0  0  0  0  0  0  0  0
   18.8920   11.7530   20.2590 C   0  0  0  0  0  0  0  0  0  0  0  0
   20.1950   11.7970   20.7440 C   0  0  0  0  0  0  0  0  0  0  0  0
   23.4880   10.6920   20.5300 C   0  0  0  0  0  0  0  0  0  0  0  0
   23.2110   10.7890   19.1730 C   0  0  0  0  0  0  0  0  0  0  0  0
   24.2350   10.8650   18.2430 C   0  0  0  0  0  0  0  0  0  0  0  0
   25.5500   10.8410   18.6560 C   0  0  0  0  0  0  0  0  0  0  0  0
   25.8710   10.7460   20.0070 C   0  0  0  0  0  0  0  0  0  0  0  0
   24.8260   10.6610   20.9430 C   0  0  0  0  0  0  0  0  0  0  0  0
    0.0000    0.0000    0.0000 H   0  0  0  0  0  0  0  0  0  0  0  0
    0.0000    0.0000    0.0000 H   0  0  0  0  0  0  0  0  0  0  0  0
    0.0000    0.0000    0.0000 H   0  0  0  0  0  0  0  0  0  0  0  0
    0.0000    0.0000    0.0000 H   0  0  0  0  0  0  0  0  0  0  0  0
    0.0000    0.0000    0.0000 H   0  0  0  0  0  0  0  0  0  0  0  0
    0.0000    0.0000    0.0000 H   0  0  0  0  0  0  0  0  0  0  0  0
    0.0000    0.0000    0.0000 H   0  0  0  0  0  0  0  0  0  0  0  0
    0.0000    0.0000    0.0000 H   0  0  0  0  0  0  0  0  0  0  0  0
    0.0000    0.0000    0.0000 H   0  0  0  0  0  0  0  0  0  0  0  0
    0.0000    0.0000    0.0000 H   0  0  0  0  0  0  0  0  0  0  0  0
    0.0000    0.0000    0.0000 H   0  0  0  0  0  0  0  0  0  0  0  0
    0.0000    0.0000    0.0000 H   0  0  0  0  0  0  0  0  0  0  0  0
    0.0000    0.0000    0.0000 H   0  0  0  0  0  0  0  0  0  0  0  0
    0.0000    0.0000    0.0000 H   0  0  0  0  0  0  0  0  0  0  0  0
   12.4673    5.2899    9.1033 C   0  0  0  0  0  0  0  0  0  0  0  0
   12.3312    3.7800    9.1179 C   0  0  0  0  0  0  0  0  0  0  0  0
   12.1202    3.2672   10.3698 O   0  0  0  0  0  0  0  0  0  0  0  0
   12.6180    5.6354    8.0582 H   0  0  0  0  0  0  0  0  0  0  0  0
   11.5273    5.7871    9.4416 H   0  0  0  0  0  0  0  0  0  0  0  0
   13.1928    3.3458    8.5797 H   0  0  0  0  0  0  0  0  0  0  0  0
   11.4188    3.5412    8.5056 H   0  0  0  0  0  0  0  0  0  0  0  0
   12.9649    3.0937   10.8817 H   0  0  0  0  0  0  0  0  0  0  0  0
  1  3  2  0
  1  4  1  0
  1  5  1  0
  2  4  1  0
  2  6  1  0
  4  9  1  0
  4 15  1  0
  5  6  1  0
  5  8  1  0
  6  7  2  3
  9 10  2  0
  9 14  1  0
 10 11  1  0
 11 12  2  0
 12 13  1  0
 13 14  2  0
 15 16  2  0
 15 20  1  0
 16 17  1  0
 17 18  2  0
 18 19  1  0
 19 20  2  0
  2 21  1  0
  7 22  1  0
  8 23  1  0
  8 24  1  0
  8 25  1  0
 10 26  1  0
 11 27  1  0
 12 28  1  0
 13 29  1  0
 14 30  1  0
 16 31  1  0
 17 32  1  0
 19 33  1  0
 20 34  1  0
 35 36  1  0
 36 37  1  0
 35 38  1  0
 35 39  1  0
 36 40  1  0
 36 41  1  0
 37 42  1  0
 18 35  1  0
M  END
>  <attachment_point>  (65) 
32

>  <score>  (65) 
<NA>

$$$$
4djw
     RDKit          3D

 43 46  0  0  0  0  0  0  0  0999 V2000
   22.4950   11.8750   22.5810 C   0  0  0  0  0  0  0  0  0  0  0  0
   22.5380    9.4930   22.4640 N   0  0  0  0  0  0  0  0  0  0  0  0
   22.3600   13.0630   22.3480 O   0  0  0  0  0  0  0  0  0  0  0  0
   22.3390   10.6680   21.5610 C   0  0  0  0  0  0  0  0  0  0  0  0
   22.7860   11.3350   23.8120 N   0  0  0  0  0  0  0  0  0  0  0  0
   22.7800    9.9140   23.7010 C   0  0  0  0  0  0  0  0  0  0  0  0
   22.9970    9.1110   24.7490 N   0  0  0  0  0  0  0  0  0  0  0  0
   23.0220   12.1410   25.0180 C   0  0  0  0  0  0  0  0  0  0  0  0
   20.9020   10.6270   21.0050 C   0  0  0  0  0  0  0  0  0  0  0  0
   20.2720    9.4140   20.7470 C   0  0  0  0  0  0  0  0  0  0  0  0
   18.9690    9.3760   20.2600 C   0  0  0  0  0  0  0  0  0  0  0  0
   18.2800   10.5440   20.0210 C   0  0  0  0  0  0  0  0  0  0  0  0
   18.8920   11.7530   20.2590 C   0  0  0  0  0  0  0  0  0  0  0  0
   20.1950   11.7970   20.7440 C   0  0  0  0  0  0  0  0  0  0  0  0
   23.4880   10.6920   20.5300 C   0  0  0  0  0  0  0  0  0  0  0  0
   23.2110   10.7890   19.1730 C   0  0  0  0  0  0  0  0  0  0  0  0
   24.2350   10.8650   18.2430 C   0  0  0  0  0  0  0  0  0  0  0  0
   25.5500   10.8410   18.6560 C   0  0  0  0  0  0  0  0  0  0  0  0
   25.8710   10.7460   20.0070 C   0  0  0  0  0  0  0  0  0  0  0  0
   24.8260   10.6610   20.9430 C   0  0  0  0  0  0  0  0  0  0  0  0
    0.0000    0.0000    0.0000 H   0  0  0  0  0  0  0  0  0  0  0  0
    0.0000    0.0000    0.0000 H   0  0  0  0  0  0  0  0  0  0  0  0
    0.0000    0.0000    0.0000 H   0  0  0  0  0  0  0  0  0  0  0  0
    0.0000    0.0000    0.0000 H   0  0  0  0  0  0  0  0  0  0  0  0
    0.0000    0.0000    0.0000 H   0  0  0  0  0  0  0  0  0  0  0  0
    0.0000    0.0000    0.0000 H   0  0  0  0  0  0  0  0  0  0  0  0
    0.0000    0.0000    0.0000 H   0  0  0  0  0  0  0  0  0  0  0  0
    0.0000    0.0000    0.0000 H   0  0  0  0  0  0  0  0  0  0  0  0
    0.0000    0.0000    0.0000 H   0  0  0  0  0  0  0  0  0  0  0  0
    0.0000    0.0000    0.0000 H   0  0  0  0  0  0  0  0  0  0  0  0
    0.0000    0.0000    0.0000 H   0  0  0  0  0  0  0  0  0  0  0  0
    0.0000    0.0000    0.0000 H   0  0  0  0  0  0  0  0  0  0  0  0
    0.0000    0.0000    0.0000 H   0  0  0  0  0  0  0  0  0  0  0  0
    0.0000    0.0000    0.0000 H   0  0  0  0  0  0  0  0  0  0  0  0
   12.3562    5.2428    9.0222 C   0  0  0  0  0  0  0  0  0  0  0  0
   12.3358    3.9426    8.7893 C   0  0  0  0  0  0  0  0  0  0  0  0
   11.2758    3.5261    8.0208 N   0  0  0  0  0  0  0  0  0  0  0  0
   10.3760    4.3981    7.5756 C   0  0  0  0  0  0  0  0  0  0  0  0
   10.4513    5.7086    7.8464 N   0  0  0  0  0  0  0  0  0  0  0  0
   11.5063    6.1765    8.6202 C   0  0  0  0  0  0  0  0  0  0  0  0
   13.0839    3.2778    9.1696 H   0  0  0  0  0  0  0  0  0  0  0  0
    9.5469    4.0577    6.9719 H   0  0  0  0  0  0  0  0  0  0  0  0
   11.5819    7.2408    8.8497 H   0  0  0  0  0  0  0  0  0  0  0  0
  1  3  2  0
  1  4  1  0
  1  5  1  0
  2  4  1  0
  2  6  1  0
  4  9  1  0
  4 15  1  0
  5  6  1  0
  5  8  1  0
  6  7  2  3
  9 10  2  0
  9 14  1  0
 10 11  1  0
 11 12  2  0
 12 13  1  0
 13 14  2  0
 15 16  2  0
 15 20  1  0
 16 17  1  0
 17 18  2  0
 18 19  1  0
 19 20  2  0
  2 21  1  0
  7 22  1  0
  8 23  1  0
  8 24  1  0
  8 25  1  0
 10 26  1  0
 11 27  1  0
 12 28  1  0
 13 29  1  0
 14 30  1  0
 16 31  1  0
 17 32  1  0
 19 33  1  0
 20 34  1  0
 35 36  2  0
 36 37  1  0
 37 38  2  0
 38 39  1  0
 39 40  2  0
 40 35  1  0
 36 41  1  0
 38 42  1  0
 40 43  1  0
 18 35  1  0
M  END
>  <attachment_point>  (66) 
32

>  <score>  (66) 
<NA>

$$$$
4djw
     RDKit          3D

 42 45  0  0  0  0  0  0  0  0999 V2000
   22.4950   11.8750   22.5810 C   0  0  0  0  0  0  0  0  0  0  0  0
   22.5380    9.4930   22.4640 N   0  0  0  0  0  0  0  0  0  0  0  0
   22.3600   13.0630   22.3480 O   0  0  0  0  0  0  0  0  0  0  0  0
   22.3390   10.6680   21.5610 C   0  0  0  0  0  0  0  0  0  0  0  0
   22.7860   11.3350   23.8120 N   0  0  0  0  0  0  0  0  0  0  0  0
   22.7800    9.9140   23.7010 C   0  0  0  0  0  0  0  0  0  0  0  0
   22.9970    9.1110   24.7490 N   0  0  0  0  0  0  0  0  0  0  0  0
   23.0220   12.1410   25.0180 C   0  0  0  0  0  0  0  0  0  0  0  0
   20.9020   10.6270   21.0050 C   0  0  0  0  0  0  0  0  0  0  0  0
   20.2720    9.4140   20.7470 C   0  0  0  0  0  0  0  0  0  0  0  0
   18.9690    9.3760   20.2600 C   0  0  0  0  0  0  0  0  0  0  0  0
   18.2800   10.5440   20.0210 C   0  0  0  0  0  0  0  0  0  0  0  0
   18.8920   11.7530   20.2590 C   0  0  0  0  0  0  0  0  0  0  0  0
   20.1950   11.7970   20.7440 C   0  0  0  0  0  0  0  0  0  0  0  0
   23.4880   10.6920   20.5300 C   0  0  0  0  0  0  0  0  0  0  0  0
   23.2110   10.7890   19.1730 C   0  0  0  0  0  0  0  0  0  0  0  0
   24.2350   10.8650   18.2430 C   0  0  0  0  0  0  0  0  0  0  0  0
   25.5500   10.8410   18.6560 C   0  0  0  0  0  0  0  0  0  0  0  0
   25.8710   10.7460   20.0070 C   0  0  0  0  0  0  0  0  0  0  0  0
   24.8260   10.6610   20.9430 C   0  0  0  0  0  0  0  0  0  0  0  0
    0.0000    0.0000    0.0000 H   0  0  0  0  0  0  0  0  0  0  0  0
    0.0000    0.0000    0.0000 H   0  0  0  0  0  0  0  0  0  0  0  0
    0.0000    0.0000    0.0000 H   0  0  0  0  0  0  0  0  0  0  0  0
    0.0000    0.0000    0.0000 H   0  0  0  0  0  0  0  0  0  0  0  0
    0.0000    0.0000    0.0000 H   0  0  0  0  0  0  0  0  0  0  0  0
    0.0000    0.0000    0.0000 H   0  0  0  0  0  0  0  0  0  0  0  0
    0.0000    0.0000    0.0000 H   0  0  0  0  0  0  0  0  0  0  0  0
    0.0000    0.0000    0.0000 H   0  0  0  0  0  0  0  0  0  0  0  0
    0.0000    0.0000    0.0000 H   0  0  0  0  0  0  0  0  0  0  0  0
    0.0000    0.0000    0.0000 H   0  0  0  0  0  0  0  0  0  0  0  0
    0.0000    0.0000    0.0000 H   0  0  0  0  0  0  0  0  0  0  0  0
    0.0000    0.0000    0.0000 H   0  0  0  0  0  0  0  0  0  0  0  0
    0.0000    0.0000    0.0000 H   0  0  0  0  0  0  0  0  0  0  0  0
    0.0000    0.0000    0.0000 H   0  0  0  0  0  0  0  0  0  0  0  0
   12.4300    5.2741    9.0761 C   0  0  0  0  0  0  0  0  0  0  0  0
   12.3433    4.0339    8.5097 C   0  0  0  0  0  0  0  0  0  0  0  0
   11.1362    4.0256    7.8389 C   0  0  0  0  0  0  0  0  0  0  0  0
   10.5522    5.2622    8.0329 C   0  0  0  0  0  0  0  0  0  0  0  0
   11.3731    5.9538    8.7758 O   0  0  0  0  0  0  0  0  0  0  0  0
   13.0588    3.2453    8.5758 H   0  0  0  0  0  0  0  0  0  0  0  0
   10.7720    3.1678    7.2791 H   0  0  0  0  0  0  0  0  0  0  0  0
    9.6080    5.5856    7.6460 H   0  0  0  0  0  0  0  0  0  0  0  0
  1  3  2  0
  1  4  1  0
  1  5  1  0
  2  4  1  0
  2  6  1  0
  4  9  1  0
  4 15  1  0
  5  6  1  0
  5  8  1  0
  6  7  2  3
  9 10  2  0
  9 14  1  0
 10 11  1  0
 11 12  2  0
 12 13  1  0
 13 14  2  0
 15 16  2  0
 15 20  1  0
 16 17  1  0
 17 18  2  0
 18 19  1  0
 19 20  2  0
  2 21  1  0
  7 22  1  0
  8 23  1  0
  8 24  1  0
  8 25  1  0
 10 26  1  0
 11 27  1  0
 12 28  1  0
 13 29  1  0
 14 30  1  0
 16 31  1  0
 17 32  1  0
 19 33  1  0
 20 34  1  0
 35 36  2  0
 36 37  1  0
 37 38  2  0
 38 39  1  0
 39 35  1  0
 36 40  1  0
 37 41  1  0
 38 42  1  0
 18 35  1  0
M  END
>  <attachment_point>  (67) 
32

>  <score>  (67) 
<NA>

$$$$
4djw
     RDKit          3D

 43 45  0  0  0  0  0  0  0  0999 V2000
   22.4950   11.8750   22.5810 C   0  0  0  0  0  0  0  0  0  0  0  0
   22.5380    9.4930   22.4640 N   0  0  0  0  0  0  0  0  0  0  0  0
   22.3600   13.0630   22.3480 O   0  0  0  0  0  0  0  0  0  0  0  0
   22.3390   10.6680   21.5610 C   0  0  0  0  0  0  0  0  0  0  0  0
   22.7860   11.3350   23.8120 N   0  0  0  0  0  0  0  0  0  0  0  0
   22.7800    9.9140   23.7010 C   0  0  0  0  0  0  0  0  0  0  0  0
   22.9970    9.1110   24.7490 N   0  0  0  0  0  0  0  0  0  0  0  0
   23.0220   12.1410   25.0180 C   0  0  0  0  0  0  0  0  0  0  0  0
   20.9020   10.6270   21.0050 C   0  0  0  0  0  0  0  0  0  0  0  0
   20.2720    9.4140   20.7470 C   0  0  0  0  0  0  0  0  0  0  0  0
   18.9690    9.3760   20.2600 C   0  0  0  0  0  0  0  0  0  0  0  0
   18.2800   10.5440   20.0210 C   0  0  0  0  0  0  0  0  0  0  0  0
   18.8920   11.7530   20.2590 C   0  0  0  0  0  0  0  0  0  0  0  0
   20.1950   11.7970   20.7440 C   0  0  0  0  0  0  0  0  0  0  0  0
   23.4880   10.6920   20.5300 C   0  0  0  0  0  0  0  0  0  0  0  0
   23.2110   10.7890   19.1730 C   0  0  0  0  0  0  0  0  0  0  0  0
   24.2350   10.8650   18.2430 C   0  0  0  0  0  0  0  0  0  0  0  0
   25.5500   10.8410   18.6560 C   0  0  0  0  0  0  0  0  0  0  0  0
   25.8710   10.7460   20.0070 C   0  0  0  0  0  0  0  0  0  0  0  0
   24.8260   10.6610   20.9430 C   0  0  0  0  0  0  0  0  0  0  0  0
    0.0000    0.0000    0.0000 H   0  0  0  0  0  0  0  0  0  0  0  0
    0.0000    0.0000    0.0000 H   0  0  0  0  0  0  0  0  0  0  0  0
    0.0000    0.0000    0.0000 H   0  0  0  0  0  0  0  0  0  0  0  0
    0.0000    0.0000    0.0000 H   0  0  0  0  0  0  0  0  0  0  0  0
    0.0000    0.0000    0.0000 H   0  0  0  0  0  0  0  0  0  0  0  0
    0.0000    0.0000    0.0000 H   0  0  0  0  0  0  0  0  0  0  0  0
    0.0000    0.0000    0.0000 H   0  0  0  0  0  0  0  0  0  0  0  0
    0.0000    0.0000    0.0000 H   0  0  0  0  0  0  0  0  0  0  0  0
    0.0000    0.0000    0.0000 H   0  0  0  0  0  0  0  0  0  0  0  0
    0.0000    0.0000    0.0000 H   0  0  0  0  0  0  0  0  0  0  0  0
    0.0000    0.0000    0.0000 H   0  0  0  0  0  0  0  0  0  0  0  0
    0.0000    0.0000    0.0000 H   0  0  0  0  0  0  0  0  0  0  0  0
    0.0000    0.0000    0.0000 H   0  0  0  0  0  0  0  0  0  0  0  0
    0.0000    0.0000    0.0000 H   0  0  0  0  0  0  0  0  0  0  0  0
   12.4394    5.2781    9.0830 C   0  0  0  0  0  0  0  0  0  0  0  0
   11.1236    5.5024    9.7825 C   0  0  0  0  0  0  0  0  0  0  0  0
   10.9730    6.9225   10.0207 N   0  0  0  0  0  0  0  0  0  0  0  0
   12.5906    4.2002    8.8369 H   0  0  0  0  0  0  0  0  0  0  0  0
   12.4690    5.9255    8.1835 H   0  0  0  0  0  0  0  0  0  0  0  0
   10.3275    5.2171    9.0634 H   0  0  0  0  0  0  0  0  0  0  0  0
   10.9976    4.8905   10.6780 H   0  0  0  0  0  0  0  0  0  0  0  0
   11.7424    7.3358   10.5669 H   0  0  0  0  0  0  0  0  0  0  0  0
   10.9881    7.3849    9.0831 H   0  0  0  0  0  0  0  0  0  0  0  0
  1  3  2  0
  1  4  1  0
  1  5  1  0
  2  4  1  0
  2  6  1  0
  4  9  1  0
  4 15  1  0
  5  6  1  0
  5  8  1  0
  6  7  2  3
  9 10  2  0
  9 14  1  0
 10 11  1  0
 11 12  2  0
 12 13  1  0
 13 14  2  0
 15 16  2  0
 15 20  1  0
 16 17  1  0
 17 18  2  0
 18 19  1  0
 19 20  2  0
  2 21  1  0
  7 22  1  0
  8 23  1  0
  8 24  1  0
  8 25  1  0
 10 26  1  0
 11 27  1  0
 12 28  1  0
 13 29  1  0
 14 30  1  0
 16 31  1  0
 17 32  1  0
 19 33  1  0
 20 34  1  0
 35 36  1  0
 36 37  1  0
 35 38  1  0
 35 39  1  0
 36 40  1  0
 36 41  1  0
 37 42  1  0
 37 43  1  0
 18 35  1  0
M  END
>  <attachment_point>  (68) 
32

>  <score>  (68) 
<NA>

$$$$
4djw
     RDKit          3D

 46 49  0  0  0  0  0  0  0  0999 V2000
   22.4950   11.8750   22.5810 C   0  0  0  0  0  0  0  0  0  0  0  0
   22.5380    9.4930   22.4640 N   0  0  0  0  0  0  0  0  0  0  0  0
   22.3600   13.0630   22.3480 O   0  0  0  0  0  0  0  0  0  0  0  0
   22.3390   10.6680   21.5610 C   0  0  0  0  0  0  0  0  0  0  0  0
   22.7860   11.3350   23.8120 N   0  0  0  0  0  0  0  0  0  0  0  0
   22.7800    9.9140   23.7010 C   0  0  0  0  0  0  0  0  0  0  0  0
   22.9970    9.1110   24.7490 N   0  0  0  0  0  0  0  0  0  0  0  0
   23.0220   12.1410   25.0180 C   0  0  0  0  0  0  0  0  0  0  0  0
   20.9020   10.6270   21.0050 C   0  0  0  0  0  0  0  0  0  0  0  0
   20.2720    9.4140   20.7470 C   0  0  0  0  0  0  0  0  0  0  0  0
   18.9690    9.3760   20.2600 C   0  0  0  0  0  0  0  0  0  0  0  0
   18.2800   10.5440   20.0210 C   0  0  0  0  0  0  0  0  0  0  0  0
   18.8920   11.7530   20.2590 C   0  0  0  0  0  0  0  0  0  0  0  0
   20.1950   11.7970   20.7440 C   0  0  0  0  0  0  0  0  0  0  0  0
   23.4880   10.6920   20.5300 C   0  0  0  0  0  0  0  0  0  0  0  0
   23.2110   10.7890   19.1730 C   0  0  0  0  0  0  0  0  0  0  0  0
   24.2350   10.8650   18.2430 C   0  0  0  0  0  0  0  0  0  0  0  0
   25.5500   10.8410   18.6560 C   0  0  0  0  0  0  0  0  0  0  0  0
   25.8710   10.7460   20.0070 C   0  0  0  0  0  0  0  0  0  0  0  0
   24.8260   10.6610   20.9430 C   0  0  0  0  0  0  0  0  0  0  0  0
    0.0000    0.0000    0.0000 H   0  0  0  0  0  0  0  0  0  0  0  0
    0.0000    0.0000    0.0000 H   0  0  0  0  0  0  0  0  0  0  0  0
    0.0000    0.0000    0.0000 H   0  0  0  0  0  0  0  0  0  0  0  0
    0.0000    0.0000    0.0000 H   0  0  0  0  0  0  0  0  0  0  0  0
    0.0000    0.0000    0.0000 H   0  0  0  0  0  0  0  0  0  0  0  0
    0.0000    0.0000    0.0000 H   0  0  0  0  0  0  0  0  0  0  0  0
    0.0000    0.0000    0.0000 H   0  0  0  0  0  0  0  0  0  0  0  0
    0.0000    0.0000    0.0000 H   0  0  0  0  0  0  0  0  0  0  0  0
    0.0000    0.0000    0.0000 H   0  0  0  0  0  0  0  0  0  0  0  0
    0.0000    0.0000    0.0000 H   0  0  0  0  0  0  0  0  0  0  0  0
    0.0000    0.0000    0.0000 H   0  0  0  0  0  0  0  0  0  0  0  0
    0.0000    0.0000    0.0000 H   0  0  0  0  0  0  0  0  0  0  0  0
    0.0000    0.0000    0.0000 H   0  0  0  0  0  0  0  0  0  0  0  0
    0.0000    0.0000    0.0000 H   0  0  0  0  0  0  0  0  0  0  0  0
   12.3847    5.2549    9.0430 C   0  0  0  0  0  0  0  0  0  0  0  0
   12.6741    4.7869    7.8202 C   0  0  0  0  0  0  0  0  0  0  0  0
   11.6230    4.3193    7.0003 C   0  0  0  0  0  0  0  0  0  0  0  0
   10.3387    4.3609    7.4862 C   0  0  0  0  0  0  0  0  0  0  0  0
    9.2498    3.8830    6.6521 C   0  0  0  0  0  0  0  0  0  0  0  0
    8.3774    3.5221    5.9897 N   0  0  0  0  0  0  0  0  0  0  0  0
   10.1038    4.8520    8.7484 C   0  0  0  0  0  0  0  0  0  0  0  0
   11.1567    5.3187    9.5659 C   0  0  0  0  0  0  0  0  0  0  0  0
   13.6829    4.7612    7.4557 H   0  0  0  0  0  0  0  0  0  0  0  0
   11.8201    3.9420    6.0255 H   0  0  0  0  0  0  0  0  0  0  0  0
    9.1015    4.8807    9.1186 H   0  0  0  0  0  0  0  0  0  0  0  0
   10.9799    5.6983   10.5403 H   0  0  0  0  0  0  0  0  0  0  0  0
  1  3  2  0
  1  4  1  0
  1  5  1  0
  2  4  1  0
  2  6  1  0
  4  9  1  0
  4 15  1  0
  5  6  1  0
  5  8  1  0
  6  7  2  3
  9 10  2  0
  9 14  1  0
 10 11  1  0
 11 12  2  0
 12 13  1  0
 13 14  2  0
 15 16  2  0
 15 20  1  0
 16 17  1  0
 17 18  2  0
 18 19  1  0
 19 20  2  0
  2 21  1  0
  7 22  1  0
  8 23  1  0
  8 24  1  0
  8 25  1  0
 10 26  1  0
 11 27  1  0
 12 28  1  0
 13 29  1  0
 14 30  1  0
 16 31  1  0
 17 32  1  0
 19 33  1  0
 20 34  1  0
 35 36  2  0
 36 37  1  0
 37 38  2  0
 38 39  1  0
 39 40  3  0
 38 41  1  0
 41 42  2  0
 42 35  1  0
 36 43  1  0
 37 44  1  0
 41 45  1  0
 42 46  1  0
 18 35  1  0
M  END
>  <attachment_point>  (69) 
32

>  <score>  (69) 
<NA>

$$$$
4djw
     RDKit          3D

 44 46  0  0  0  0  0  0  0  0999 V2000
   22.4950   11.8750   22.5810 C   0  0  0  0  0  0  0  0  0  0  0  0
   22.5380    9.4930   22.4640 N   0  0  0  0  0  0  0  0  0  0  0  0
   22.3600   13.0630   22.3480 O   0  0  0  0  0  0  0  0  0  0  0  0
   22.3390   10.6680   21.5610 C   0  0  0  0  0  0  0  0  0  0  0  0
   22.7860   11.3350   23.8120 N   0  0  0  0  0  0  0  0  0  0  0  0
   22.7800    9.9140   23.7010 C   0  0  0  0  0  0  0  0  0  0  0  0
   22.9970    9.1110   24.7490 N   0  0  0  0  0  0  0  0  0  0  0  0
   23.0220   12.1410   25.0180 C   0  0  0  0  0  0  0  0  0  0  0  0
   20.9020   10.6270   21.0050 C   0  0  0  0  0  0  0  0  0  0  0  0
   20.2720    9.4140   20.7470 C   0  0  0  0  0  0  0  0  0  0  0  0
   18.9690    9.3760   20.2600 C   0  0  0  0  0  0  0  0  0  0  0  0
   18.2800   10.5440   20.0210 C   0  0  0  0  0  0  0  0  0  0  0  0
   18.8920   11.7530   20.2590 C   0  0  0  0  0  0  0  0  0  0  0  0
   20.1950   11.7970   20.7440 C   0  0  0  0  0  0  0  0  0  0  0  0
   23.4880   10.6920   20.5300 C   0  0  0  0  0  0  0  0  0  0  0  0
   23.2110   10.7890   19.1730 C   0  0  0  0  0  0  0  0  0  0  0  0
   24.2350   10.8650   18.2430 C   0  0  0  0  0  0  0  0  0  0  0  0
   25.5500   10.8410   18.6560 C   0  0  0  0  0  0  0  0  0  0  0  0
   25.8710   10.7460   20.0070 C   0  0  0  0  0  0  0  0  0  0  0  0
   24.8260   10.6610   20.9430 C   0  0  0  0  0  0  0  0  0  0  0  0
    0.0000    0.0000    0.0000 H   0  0  0  0  0  0  0  0  0  0  0  0
    0.0000    0.0000    0.0000 H   0  0  0  0  0  0  0  0  0  0  0  0
    0.0000    0.0000    0.0000 H   0  0  0  0  0  0  0  0  0  0  0  0
    0.0000    0.0000    0.0000 H   0  0  0  0  0  0  0  0  0  0  0  0
    0.0000    0.0000    0.0000 H   0  0  0  0  0  0  0  0  0  0  0  0
    0.0000    0.0000    0.0000 H   0  0  0  0  0  0  0  0  0  0  0  0
    0.0000    0.0000    0.0000 H   0  0  0  0  0  0  0  0  0  0  0  0
    0.0000    0.0000    0.0000 H   0  0  0  0  0  0  0  0  0  0  0  0
    0.0000    0.0000    0.0000 H   0  0  0  0  0  0  0  0  0  0  0  0
    0.0000    0.0000    0.0000 H   0  0  0  0  0  0  0  0  0  0  0  0
    0.0000    0.0000    0.0000 H   0  0  0  0  0  0  0  0  0  0  0  0
    0.0000    0.0000    0.0000 H   0  0  0  0  0  0  0  0  0  0  0  0
    0.0000    0.0000    0.0000 H   0  0  0  0  0  0  0  0  0  0  0  0
    0.0000    0.0000    0.0000 H   0  0  0  0  0  0  0  0  0  0  0  0
   12.4287    5.2736    9.0752 C   0  0  0  0  0  0  0  0  0  0  0  0
   12.3067    6.2074    7.8996 C   0  0  0  0  0  0  0  0  0  0  0  0
   13.5600    6.1763    7.1269 C   0  0  0  0  0  0  0  0  0  0  0  0
   14.6332    6.4363    7.7386 O   0  0  0  0  0  0  0  0  0  0  0  0
   13.6436    5.8816    5.7915 O   0  0  0  0  0  0  0  0  0  0  0  0
   12.6585    4.2632    8.7725 H   0  0  0  0  0  0  0  0  0  0  0  0
   11.5683    5.3623    9.7719 H   0  0  0  0  0  0  0  0  0  0  0  0
   11.4534    5.9563    7.2759 H   0  0  0  0  0  0  0  0  0  0  0  0
   12.1695    7.2543    8.2586 H   0  0  0  0  0  0  0  0  0  0  0  0
   14.4028    5.3162    5.3935 H   0  0  0  0  0  0  0  0  0  0  0  0
  1  3  2  0
  1  4  1  0
  1  5  1  0
  2  4  1  0
  2  6  1  0
  4  9  1  0
  4 15  1  0
  5  6  1  0
  5  8  1  0
  6  7  2  3
  9 10  2  0
  9 14  1  0
 10 11  1  0
 11 12  2  0
 12 13  1  0
 13 14  2  0
 15 16  2  0
 15 20  1  0
 16 17  1  0
 17 18  2  0
 18 19  1  0
 19 20  2  0
  2 21  1  0
  7 22  1  0
  8 23  1  0
  8 24  1  0
  8 25  1  0
 10 26  1  0
 11 27  1  0
 12 28  1  0
 13 29  1  0
 14 30  1  0
 16 31  1  0
 17 32  1  0
 19 33  1  0
 20 34  1  0
 35 36  1  0
 36 37  1  0
 37 38  2  0
 37 39  1  0
 35 40  1  0
 35 41  1  0
 36 42  1  0
 36 43  1  0
 39 44  1  0
 18 35  1  0
M  END
>  <attachment_point>  (70) 
32

>  <score>  (70) 
<NA>

$$$$
4djw
     RDKit          3D

 48 51  0  0  0  0  0  0  0  0999 V2000
   22.4950   11.8750   22.5810 C   0  0  0  0  0  0  0  0  0  0  0  0
   22.5380    9.4930   22.4640 N   0  0  0  0  0  0  0  0  0  0  0  0
   22.3600   13.0630   22.3480 O   0  0  0  0  0  0  0  0  0  0  0  0
   22.3390   10.6680   21.5610 C   0  0  0  0  0  0  0  0  0  0  0  0
   22.7860   11.3350   23.8120 N   0  0  0  0  0  0  0  0  0  0  0  0
   22.7800    9.9140   23.7010 C   0  0  0  0  0  0  0  0  0  0  0  0
   22.9970    9.1110   24.7490 N   0  0  0  0  0  0  0  0  0  0  0  0
   23.0220   12.1410   25.0180 C   0  0  0  0  0  0  0  0  0  0  0  0
   20.9020   10.6270   21.0050 C   0  0  0  0  0  0  0  0  0  0  0  0
   20.2720    9.4140   20.7470 C   0  0  0  0  0  0  0  0  0  0  0  0
   18.9690    9.3760   20.2600 C   0  0  0  0  0  0  0  0  0  0  0  0
   18.2800   10.5440   20.0210 C   0  0  0  0  0  0  0  0  0  0  0  0
   18.8920   11.7530   20.2590 C   0  0  0  0  0  0  0  0  0  0  0  0
   20.1950   11.7970   20.7440 C   0  0  0  0  0  0  0  0  0  0  0  0
   23.4880   10.6920   20.5300 C   0  0  0  0  0  0  0  0  0  0  0  0
   23.2110   10.7890   19.1730 C   0  0  0  0  0  0  0  0  0  0  0  0
   24.2350   10.8650   18.2430 C   0  0  0  0  0  0  0  0  0  0  0  0
   25.5500   10.8410   18.6560 C   0  0  0  0  0  0  0  0  0  0  0  0
   25.8710   10.7460   20.0070 C   0  0  0  0  0  0  0  0  0  0  0  0
   24.8260   10.6610   20.9430 C   0  0  0  0  0  0  0  0  0  0  0  0
    0.0000    0.0000    0.0000 H   0  0  0  0  0  0  0  0  0  0  0  0
    0.0000    0.0000    0.0000 H   0  0  0  0  0  0  0  0  0  0  0  0
    0.0000    0.0000    0.0000 H   0  0  0  0  0  0  0  0  0  0  0  0
    0.0000    0.0000    0.0000 H   0  0  0  0  0  0  0  0  0  0  0  0
    0.0000    0.0000    0.0000 H   0  0  0  0  0  0  0  0  0  0  0  0
    0.0000    0.0000    0.0000 H   0  0  0  0  0  0  0  0  0  0  0  0
    0.0000    0.0000    0.0000 H   0  0  0  0  0  0  0  0  0  0  0  0
    0.0000    0.0000    0.0000 H   0  0  0  0  0  0  0  0  0  0  0  0
    0.0000    0.0000    0.0000 H   0  0  0  0  0  0  0  0  0  0  0  0
    0.0000    0.0000    0.0000 H   0  0  0  0  0  0  0  0  0  0  0  0
    0.0000    0.0000    0.0000 H   0  0  0  0  0  0  0  0  0  0  0  0
    0.0000    0.0000    0.0000 H   0  0  0  0  0  0  0  0  0  0  0  0
    0.0000    0.0000    0.0000 H   0  0  0  0  0  0  0  0  0  0  0  0
    0.0000    0.0000    0.0000 H   0  0  0  0  0  0  0  0  0  0  0  0
   12.4428    5.2795    9.0854 C   0  0  0  0  0  0  0  0  0  0  0  0
   11.4637    4.5551    9.7333 C   0  0  0  0  0  0  0  0  0  0  0  0
   10.4104    4.1090    8.9601 C   0  0  0  0  0  0  0  0  0  0  0  0
   10.3595    4.3853    7.6087 C   0  0  0  0  0  0  0  0  0  0  0  0
   11.3427    5.1109    6.9659 C   0  0  0  0  0  0  0  0  0  0  0  0
   11.2634    5.3968    5.4976 C   0  0  0  0  0  0  0  0  0  0  0  0
   12.3964    5.5579    7.7356 C   0  0  0  0  0  0  0  0  0  0  0  0
   11.5125    4.3436   10.7942 H   0  0  0  0  0  0  0  0  0  0  0  0
    9.6082    3.5306    9.4252 H   0  0  0  0  0  0  0  0  0  0  0  0
    9.5387    4.0432    6.9816 H   0  0  0  0  0  0  0  0  0  0  0  0
   11.6499    6.3951    5.2747 H   0  0  0  0  0  0  0  0  0  0  0  0
   11.8010    4.5934    4.9661 H   0  0  0  0  0  0  0  0  0  0  0  0
   10.1791    5.4073    5.2492 H   0  0  0  0  0  0  0  0  0  0  0  0
   13.1820    6.1333    7.2416 H   0  0  0  0  0  0  0  0  0  0  0  0
  1  3  2  0
  1  4  1  0
  1  5  1  0
  2  4  1  0
  2  6  1  0
  4  9  1  0
  4 15  1  0
  5  6  1  0
  5  8  1  0
  6  7  2  3
  9 10  2  0
  9 14  1  0
 10 11  1  0
 11 12  2  0
 12 13  1  0
 13 14  2  0
 15 16  2  0
 15 20  1  0
 16 17  1  0
 17 18  2  0
 18 19  1  0
 19 20  2  0
  2 21  1  0
  7 22  1  0
  8 23  1  0
  8 24  1  0
  8 25  1  0
 10 26  1  0
 11 27  1  0
 12 28  1  0
 13 29  1  0
 14 30  1  0
 16 31  1  0
 17 32  1  0
 19 33  1  0
 20 34  1  0
 35 36  2  0
 36 37  1  0
 37 38  2  0
 38 39  1  0
 39 40  1  0
 39 41  2  0
 41 35  1  0
 36 42  1  0
 37 43  1  0
 38 44  1  0
 40 45  1  0
 40 46  1  0
 40 47  1  0
 41 48  1  0
 18 35  1  0
M  END
>  <attachment_point>  (71) 
32

>  <score>  (71) 
<NA>

$$$$
4djw
     RDKit          3D

 45 48  0  0  0  0  0  0  0  0999 V2000
   22.4950   11.8750   22.5810 C   0  0  0  0  0  0  0  0  0  0  0  0
   22.5380    9.4930   22.4640 N   0  0  0  0  0  0  0  0  0  0  0  0
   22.3600   13.0630   22.3480 O   0  0  0  0  0  0  0  0  0  0  0  0
   22.3390   10.6680   21.5610 C   0  0  0  0  0  0  0  0  0  0  0  0
   22.7860   11.3350   23.8120 N   0  0  0  0  0  0  0  0  0  0  0  0
   22.7800    9.9140   23.7010 C   0  0  0  0  0  0  0  0  0  0  0  0
   22.9970    9.1110   24.7490 N   0  0  0  0  0  0  0  0  0  0  0  0
   23.0220   12.1410   25.0180 C   0  0  0  0  0  0  0  0  0  0  0  0
   20.9020   10.6270   21.0050 C   0  0  0  0  0  0  0  0  0  0  0  0
   20.2720    9.4140   20.7470 C   0  0  0  0  0  0  0  0  0  0  0  0
   18.9690    9.3760   20.2600 C   0  0  0  0  0  0  0  0  0  0  0  0
   18.2800   10.5440   20.0210 C   0  0  0  0  0  0  0  0  0  0  0  0
   18.8920   11.7530   20.2590 C   0  0  0  0  0  0  0  0  0  0  0  0
   20.1950   11.7970   20.7440 C   0  0  0  0  0  0  0  0  0  0  0  0
   23.4880   10.6920   20.5300 C   0  0  0  0  0  0  0  0  0  0  0  0
   23.2110   10.7890   19.1730 C   0  0  0  0  0  0  0  0  0  0  0  0
   24.2350   10.8650   18.2430 C   0  0  0  0  0  0  0  0  0  0  0  0
   25.5500   10.8410   18.6560 C   0  0  0  0  0  0  0  0  0  0  0  0
   25.8710   10.7460   20.0070 C   0  0  0  0  0  0  0  0  0  0  0  0
   24.8260   10.6610   20.9430 C   0  0  0  0  0  0  0  0  0  0  0  0
    0.0000    0.0000    0.0000 H   0  0  0  0  0  0  0  0  0  0  0  0
    0.0000    0.0000    0.0000 H   0  0  0  0  0  0  0  0  0  0  0  0
    0.0000    0.0000    0.0000 H   0  0  0  0  0  0  0  0  0  0  0  0
    0.0000    0.0000    0.0000 H   0  0  0  0  0  0  0  0  0  0  0  0
    0.0000    0.0000    0.0000 H   0  0  0  0  0  0  0  0  0  0  0  0
    0.0000    0.0000    0.0000 H   0  0  0  0  0  0  0  0  0  0  0  0
    0.0000    0.0000    0.0000 H   0  0  0  0  0  0  0  0  0  0  0  0
    0.0000    0.0000    0.0000 H   0  0  0  0  0  0  0  0  0  0  0  0
    0.0000    0.0000    0.0000 H   0  0  0  0  0  0  0  0  0  0  0  0
    0.0000    0.0000    0.0000 H   0  0  0  0  0  0  0  0  0  0  0  0
    0.0000    0.0000    0.0000 H   0  0  0  0  0  0  0  0  0  0  0  0
    0.0000    0.0000    0.0000 H   0  0  0  0  0  0  0  0  0  0  0  0
    0.0000    0.0000    0.0000 H   0  0  0  0  0  0  0  0  0  0  0  0
    0.0000    0.0000    0.0000 H   0  0  0  0  0  0  0  0  0  0  0  0
   12.4411    5.2788    9.0842 C   0  0  0  0  0  0  0  0  0  0  0  0
   11.2977    6.0371    8.9046 C   0  0  0  0  0  0  0  0  0  0  0  0
   10.2387    5.5985    8.1369 C   0  0  0  0  0  0  0  0  0  0  0  0
   10.3497    4.3576    7.5392 C   0  0  0  0  0  0  0  0  0  0  0  0
   11.4993    3.6094    7.7273 C   0  0  0  0  0  0  0  0  0  0  0  0
   11.6084    2.3908    7.1403 F   0  0  0  0  0  0  0  0  0  0  0  0
   12.5600    4.0395    8.4913 C   0  0  0  0  0  0  0  0  0  0  0  0
   11.1965    7.0070    9.3643 H   0  0  0  0  0  0  0  0  0  0  0  0
    9.3511    6.1716    7.9893 H   0  0  0  0  0  0  0  0  0  0  0  0
    9.5375    3.9887    6.9334 H   0  0  0  0  0  0  0  0  0  0  0  0
   13.4611    3.4620    8.6434 H   0  0  0  0  0  0  0  0  0  0  0  0
  1  3  2  0
  1  4  1  0
  1  5  1  0
  2  4  1  0
  2  6  1  0
  4  9  1  0
  4 15  1  0
  5  6  1  0
  5  8  1  0
  6  7  2  3
  9 10  2  0
  9 14  1  0
 10 11  1  0
 11 12  2  0
 12 13  1  0
 13 14  2  0
 15 16  2  0
 15 20  1  0
 16 17  1  0
 17 18  2  0
 18 19  1  0
 19 20  2  0
  2 21  1  0
  7 22  1  0
  8 23  1  0
  8 24  1  0
  8 25  1  0
 10 26  1  0
 11 27  1  0
 12 28  1  0
 13 29  1  0
 14 30  1  0
 16 31  1  0
 17 32  1  0
 19 33  1  0
 20 34  1  0
 35 36  2  0
 36 37  1  0
 37 38  2  0
 38 39  1  0
 39 40  1  0
 39 41  2  0
 41 35  1  0
 36 42  1  0
 37 43  1  0
 38 44  1  0
 41 45  1  0
 18 35  1  0
M  END
>  <attachment_point>  (72) 
32

>  <score>  (72) 
<NA>

$$$$
4djw
     RDKit          3D

 47 49  0  0  0  0  0  0  0  0999 V2000
   22.4950   11.8750   22.5810 C   0  0  0  0  0  0  0  0  0  0  0  0
   22.5380    9.4930   22.4640 N   0  0  0  0  0  0  0  0  0  0  0  0
   22.3600   13.0630   22.3480 O   0  0  0  0  0  0  0  0  0  0  0  0
   22.3390   10.6680   21.5610 C   0  0  0  0  0  0  0  0  0  0  0  0
   22.7860   11.3350   23.8120 N   0  0  0  0  0  0  0  0  0  0  0  0
   22.7800    9.9140   23.7010 C   0  0  0  0  0  0  0  0  0  0  0  0
   22.9970    9.1110   24.7490 N   0  0  0  0  0  0  0  0  0  0  0  0
   23.0220   12.1410   25.0180 C   0  0  0  0  0  0  0  0  0  0  0  0
   20.9020   10.6270   21.0050 C   0  0  0  0  0  0  0  0  0  0  0  0
   20.2720    9.4140   20.7470 C   0  0  0  0  0  0  0  0  0  0  0  0
   18.9690    9.3760   20.2600 C   0  0  0  0  0  0  0  0  0  0  0  0
   18.2800   10.5440   20.0210 C   0  0  0  0  0  0  0  0  0  0  0  0
   18.8920   11.7530   20.2590 C   0  0  0  0  0  0  0  0  0  0  0  0
   20.1950   11.7970   20.7440 C   0  0  0  0  0  0  0  0  0  0  0  0
   23.4880   10.6920   20.5300 C   0  0  0  0  0  0  0  0  0  0  0  0
   23.2110   10.7890   19.1730 C   0  0  0  0  0  0  0  0  0  0  0  0
   24.2350   10.8650   18.2430 C   0  0  0  0  0  0  0  0  0  0  0  0
   25.5500   10.8410   18.6560 C   0  0  0  0  0  0  0  0  0  0  0  0
   25.8710   10.7460   20.0070 C   0  0  0  0  0  0  0  0  0  0  0  0
   24.8260   10.6610   20.9430 C   0  0  0  0  0  0  0  0  0  0  0  0
    0.0000    0.0000    0.0000 H   0  0  0  0  0  0  0  0  0  0  0  0
    0.0000    0.0000    0.0000 H   0  0  0  0  0  0  0  0  0  0  0  0
    0.0000    0.0000    0.0000 H   0  0  0  0  0  0  0  0  0  0  0  0
    0.0000    0.0000    0.0000 H   0  0  0  0  0  0  0  0  0  0  0  0
    0.0000    0.0000    0.0000 H   0  0  0  0  0  0  0  0  0  0  0  0
    0.0000    0.0000    0.0000 H   0  0  0  0  0  0  0  0  0  0  0  0
    0.0000    0.0000    0.0000 H   0  0  0  0  0  0  0  0  0  0  0  0
    0.0000    0.0000    0.0000 H   0  0  0  0  0  0  0  0  0  0  0  0
    0.0000    0.0000    0.0000 H   0  0  0  0  0  0  0  0  0  0  0  0
    0.0000    0.0000    0.0000 H   0  0  0  0  0  0  0  0  0  0  0  0
    0.0000    0.0000    0.0000 H   0  0  0  0  0  0  0  0  0  0  0  0
    0.0000    0.0000    0.0000 H   0  0  0  0  0  0  0  0  0  0  0  0
    0.0000    0.0000    0.0000 H   0  0  0  0  0  0  0  0  0  0  0  0
    0.0000    0.0000    0.0000 H   0  0  0  0  0  0  0  0  0  0  0  0
   12.4389    5.2779    9.0826 C   0  0  0  0  0  0  0  0  0  0  0  0
   12.6260    3.8270    8.7585 C   0  0  0  0  0  0  0  0  0  0  0  0
   12.6939    2.9533    9.9795 C   0  0  0  0  0  0  0  0  0  0  0  0
   13.9712    3.7053    8.0408 C   0  0  0  0  0  0  0  0  0  0  0  0
   11.4781    5.5101    9.5713 H   0  0  0  0  0  0  0  0  0  0  0  0
   12.5195    5.8391    8.1252 H   0  0  0  0  0  0  0  0  0  0  0  0
   11.8036    3.5267    8.0736 H   0  0  0  0  0  0  0  0  0  0  0  0
   13.7327    2.8668   10.3757 H   0  0  0  0  0  0  0  0  0  0  0  0
   12.0369    3.2791   10.7978 H   0  0  0  0  0  0  0  0  0  0  0  0
   12.4318    1.9124    9.6350 H   0  0  0  0  0  0  0  0  0  0  0  0
   14.5717    2.8566    8.4563 H   0  0  0  0  0  0  0  0  0  0  0  0
   14.5872    4.6067    8.1601 H   0  0  0  0  0  0  0  0  0  0  0  0
   13.8031    3.4624    6.9793 H   0  0  0  0  0  0  0  0  0  0  0  0
  1  3  2  0
  1  4  1  0
  1  5  1  0
  2  4  1  0
  2  6  1  0
  4  9  1  0
  4 15  1  0
  5  6  1  0
  5  8  1  0
  6  7  2  3
  9 10  2  0
  9 14  1  0
 10 11  1  0
 11 12  2  0
 12 13  1  0
 13 14  2  0
 15 16  2  0
 15 20  1  0
 16 17  1  0
 17 18  2  0
 18 19  1  0
 19 20  2  0
  2 21  1  0
  7 22  1  0
  8 23  1  0
  8 24  1  0
  8 25  1  0
 10 26  1  0
 11 27  1  0
 12 28  1  0
 13 29  1  0
 14 30  1  0
 16 31  1  0
 17 32  1  0
 19 33  1  0
 20 34  1  0
 35 36  1  0
 36 37  1  0
 36 38  1  0
 35 39  1  0
 35 40  1  0
 36 41  1  0
 37 42  1  0
 37 43  1  0
 37 44  1  0
 38 45  1  0
 38 46  1  0
 38 47  1  0
 18 35  1  0
M  END
>  <attachment_point>  (73) 
32

>  <score>  (73) 
<NA>

$$$$
4djw
     RDKit          3D

 45 47  0  0  0  0  0  0  0  0999 V2000
   22.4950   11.8750   22.5810 C   0  0  0  0  0  0  0  0  0  0  0  0
   22.5380    9.4930   22.4640 N   0  0  0  0  0  0  0  0  0  0  0  0
   22.3600   13.0630   22.3480 O   0  0  0  0  0  0  0  0  0  0  0  0
   22.3390   10.6680   21.5610 C   0  0  0  0  0  0  0  0  0  0  0  0
   22.7860   11.3350   23.8120 N   0  0  0  0  0  0  0  0  0  0  0  0
   22.7800    9.9140   23.7010 C   0  0  0  0  0  0  0  0  0  0  0  0
   22.9970    9.1110   24.7490 N   0  0  0  0  0  0  0  0  0  0  0  0
   23.0220   12.1410   25.0180 C   0  0  0  0  0  0  0  0  0  0  0  0
   20.9020   10.6270   21.0050 C   0  0  0  0  0  0  0  0  0  0  0  0
   20.2720    9.4140   20.7470 C   0  0  0  0  0  0  0  0  0  0  0  0
   18.9690    9.3760   20.2600 C   0  0  0  0  0  0  0  0  0  0  0  0
   18.2800   10.5440   20.0210 C   0  0  0  0  0  0  0  0  0  0  0  0
   18.8920   11.7530   20.2590 C   0  0  0  0  0  0  0  0  0  0  0  0
   20.1950   11.7970   20.7440 C   0  0  0  0  0  0  0  0  0  0  0  0
   23.4880   10.6920   20.5300 C   0  0  0  0  0  0  0  0  0  0  0  0
   23.2110   10.7890   19.1730 C   0  0  0  0  0  0  0  0  0  0  0  0
   24.2350   10.8650   18.2430 C   0  0  0  0  0  0  0  0  0  0  0  0
   25.5500   10.8410   18.6560 C   0  0  0  0  0  0  0  0  0  0  0  0
   25.8710   10.7460   20.0070 C   0  0  0  0  0  0  0  0  0  0  0  0
   24.8260   10.6610   20.9430 C   0  0  0  0  0  0  0  0  0  0  0  0
    0.0000    0.0000    0.0000 H   0  0  0  0  0  0  0  0  0  0  0  0
    0.0000    0.0000    0.0000 H   0  0  0  0  0  0  0  0  0  0  0  0
    0.0000    0.0000    0.0000 H   0  0  0  0  0  0  0  0  0  0  0  0
    0.0000    0.0000    0.0000 H   0  0  0  0  0  0  0  0  0  0  0  0
    0.0000    0.0000    0.0000 H   0  0  0  0  0  0  0  0  0  0  0  0
    0.0000    0.0000    0.0000 H   0  0  0  0  0  0  0  0  0  0  0  0
    0.0000    0.0000    0.0000 H   0  0  0  0  0  0  0  0  0  0  0  0
    0.0000    0.0000    0.0000 H   0  0  0  0  0  0  0  0  0  0  0  0
    0.0000    0.0000    0.0000 H   0  0  0  0  0  0  0  0  0  0  0  0
    0.0000    0.0000    0.0000 H   0  0  0  0  0  0  0  0  0  0  0  0
    0.0000    0.0000    0.0000 H   0  0  0  0  0  0  0  0  0  0  0  0
    0.0000    0.0000    0.0000 H   0  0  0  0  0  0  0  0  0  0  0  0
    0.0000    0.0000    0.0000 H   0  0  0  0  0  0  0  0  0  0  0  0
    0.0000    0.0000    0.0000 H   0  0  0  0  0  0  0  0  0  0  0  0
   12.5847    5.3398    9.1891 O   0  0  0  0  0  0  0  0  0  0  0  0
   11.2811    5.7801    8.8950 C   0  0  0  0  0  0  0  0  0  0  0  0
   10.2835    4.6996    9.3327 C   0  0  0  0  0  0  0  0  0  0  0  0
   11.1333    5.9675    7.3973 C   0  0  0  0  0  0  0  0  0  0  0  0
   11.0692    6.7286    9.4287 H   0  0  0  0  0  0  0  0  0  0  0  0
   10.7842    4.0016   10.0067 H   0  0  0  0  0  0  0  0  0  0  0  0
    9.9318    4.1170    8.4472 H   0  0  0  0  0  0  0  0  0  0  0  0
    9.3929    5.1822    9.7552 H   0  0  0  0  0  0  0  0  0  0  0  0
   10.7585    6.9778    7.1362 H   0  0  0  0  0  0  0  0  0  0  0  0
   10.3644    5.2580    6.9784 H   0  0  0  0  0  0  0  0  0  0  0  0
   12.0733    5.7641    6.8523 H   0  0  0  0  0  0  0  0  0  0  0  0
  1  3  2  0
  1  4  1  0
  1  5  1  0
  2  4  1  0
  2  6  1  0
  4  9  1  0
  4 15  1  0
  5  6  1  0
  5  8  1  0
  6  7  2  3
  9 10  2  0
  9 14  1  0
 10 11  1  0
 11 12  2  0
 12 13  1  0
 13 14  2  0
 15 16  2  0
 15 20  1  0
 16 17  1  0
 17 18  2  0
 18 19  1  0
 19 20  2  0
  2 21  1  0
  7 22  1  0
  8 23  1  0
  8 24  1  0
  8 25  1  0
 10 26  1  0
 11 27  1  0
 12 28  1  0
 13 29  1  0
 14 30  1  0
 16 31  1  0
 17 32  1  0
 19 33  1  0
 20 34  1  0
 35 36  1  0
 36 37  1  0
 36 38  1  0
 36 39  1  0
 37 40  1  0
 37 41  1  0
 37 42  1  0
 38 43  1  0
 38 44  1  0
 38 45  1  0
 18 35  1  0
M  END
>  <attachment_point>  (74) 
32

>  <score>  (74) 
<NA>

$$$$
4djw
     RDKit          3D

 43 45  0  0  0  0  0  0  0  0999 V2000
   22.4950   11.8750   22.5810 C   0  0  0  0  0  0  0  0  0  0  0  0
   22.5380    9.4930   22.4640 N   0  0  0  0  0  0  0  0  0  0  0  0
   22.3600   13.0630   22.3480 O   0  0  0  0  0  0  0  0  0  0  0  0
   22.3390   10.6680   21.5610 C   0  0  0  0  0  0  0  0  0  0  0  0
   22.7860   11.3350   23.8120 N   0  0  0  0  0  0  0  0  0  0  0  0
   22.7800    9.9140   23.7010 C   0  0  0  0  0  0  0  0  0  0  0  0
   22.9970    9.1110   24.7490 N   0  0  0  0  0  0  0  0  0  0  0  0
   23.0220   12.1410   25.0180 C   0  0  0  0  0  0  0  0  0  0  0  0
   20.9020   10.6270   21.0050 C   0  0  0  0  0  0  0  0  0  0  0  0
   20.2720    9.4140   20.7470 C   0  0  0  0  0  0  0  0  0  0  0  0
   18.9690    9.3760   20.2600 C   0  0  0  0  0  0  0  0  0  0  0  0
   18.2800   10.5440   20.0210 C   0  0  0  0  0  0  0  0  0  0  0  0
   18.8920   11.7530   20.2590 C   0  0  0  0  0  0  0  0  0  0  0  0
   20.1950   11.7970   20.7440 C   0  0  0  0  0  0  0  0  0  0  0  0
   23.4880   10.6920   20.5300 C   0  0  0  0  0  0  0  0  0  0  0  0
   23.2110   10.7890   19.1730 C   0  0  0  0  0  0  0  0  0  0  0  0
   24.2350   10.8650   18.2430 C   0  0  0  0  0  0  0  0  0  0  0  0
   25.5500   10.8410   18.6560 C   0  0  0  0  0  0  0  0  0  0  0  0
   25.8710   10.7460   20.0070 C   0  0  0  0  0  0  0  0  0  0  0  0
   24.8260   10.6610   20.9430 C   0  0  0  0  0  0  0  0  0  0  0  0
    0.0000    0.0000    0.0000 H   0  0  0  0  0  0  0  0  0  0  0  0
    0.0000    0.0000    0.0000 H   0  0  0  0  0  0  0  0  0  0  0  0
    0.0000    0.0000    0.0000 H   0  0  0  0  0  0  0  0  0  0  0  0
    0.0000    0.0000    0.0000 H   0  0  0  0  0  0  0  0  0  0  0  0
    0.0000    0.0000    0.0000 H   0  0  0  0  0  0  0  0  0  0  0  0
    0.0000    0.0000    0.0000 H   0  0  0  0  0  0  0  0  0  0  0  0
    0.0000    0.0000    0.0000 H   0  0  0  0  0  0  0  0  0  0  0  0
    0.0000    0.0000    0.0000 H   0  0  0  0  0  0  0  0  0  0  0  0
    0.0000    0.0000    0.0000 H   0  0  0  0  0  0  0  0  0  0  0  0
    0.0000    0.0000    0.0000 H   0  0  0  0  0  0  0  0  0  0  0  0
    0.0000    0.0000    0.0000 H   0  0  0  0  0  0  0  0  0  0  0  0
    0.0000    0.0000    0.0000 H   0  0  0  0  0  0  0  0  0  0  0  0
    0.0000    0.0000    0.0000 H   0  0  0  0  0  0  0  0  0  0  0  0
    0.0000    0.0000    0.0000 H   0  0  0  0  0  0  0  0  0  0  0  0
   12.3906    5.2574    9.0473 N   0  0  0  0  0  0  0  0  0  0  0  0
   13.3741    4.0571    8.2423 S   0  0  0  0  0  6  0  0  0  0  0  0
   14.6972    4.8300    7.3443 C   0  0  0  0  0  0  0  0  0  0  0  0
   12.5687    3.2716    7.2839 O   0  0  0  0  0  0  0  0  0  0  0  0
   13.8989    3.1420    9.3100 O   0  0  0  0  0  0  0  0  0  0  0  0
   12.3229    6.1313    8.4772 H   0  0  0  0  0  0  0  0  0  0  0  0
   15.0765    5.6794    7.9142 H   0  0  0  0  0  0  0  0  0  0  0  0
   14.3824    5.1060    6.3139 H   0  0  0  0  0  0  0  0  0  0  0  0
   15.5286    4.0706    7.3090 H   0  0  0  0  0  0  0  0  0  0  0  0
  1  3  2  0
  1  4  1  0
  1  5  1  0
  2  4  1  0
  2  6  1  0
  4  9  1  0
  4 15  1  0
  5  6  1  0
  5  8  1  0
  6  7  2  3
  9 10  2  0
  9 14  1  0
 10 11  1  0
 11 12  2  0
 12 13  1  0
 13 14  2  0
 15 16  2  0
 15 20  1  0
 16 17  1  0
 17 18  2  0
 18 19  1  0
 19 20  2  0
  2 21  1  0
  7 22  1  0
  8 23  1  0
  8 24  1  0
  8 25  1  0
 10 26  1  0
 11 27  1  0
 12 28  1  0
 13 29  1  0
 14 30  1  0
 16 31  1  0
 17 32  1  0
 19 33  1  0
 20 34  1  0
 35 36  1  0
 36 37  1  0
 36 38  2  0
 36 39  2  0
 35 40  1  0
 37 41  1  0
 37 42  1  0
 37 43  1  0
 18 35  1  0
M  END
>  <attachment_point>  (75) 
32

>  <score>  (75) 
<NA>

$$$$
4djw
     RDKit          3D

 50 52  0  0  0  0  0  0  0  0999 V2000
   22.4950   11.8750   22.5810 C   0  0  0  0  0  0  0  0  0  0  0  0
   22.5380    9.4930   22.4640 N   0  0  0  0  0  0  0  0  0  0  0  0
   22.3600   13.0630   22.3480 O   0  0  0  0  0  0  0  0  0  0  0  0
   22.3390   10.6680   21.5610 C   0  0  0  0  0  0  0  0  0  0  0  0
   22.7860   11.3350   23.8120 N   0  0  0  0  0  0  0  0  0  0  0  0
   22.7800    9.9140   23.7010 C   0  0  0  0  0  0  0  0  0  0  0  0
   22.9970    9.1110   24.7490 N   0  0  0  0  0  0  0  0  0  0  0  0
   23.0220   12.1410   25.0180 C   0  0  0  0  0  0  0  0  0  0  0  0
   20.9020   10.6270   21.0050 C   0  0  0  0  0  0  0  0  0  0  0  0
   20.2720    9.4140   20.7470 C   0  0  0  0  0  0  0  0  0  0  0  0
   18.9690    9.3760   20.2600 C   0  0  0  0  0  0  0  0  0  0  0  0
   18.2800   10.5440   20.0210 C   0  0  0  0  0  0  0  0  0  0  0  0
   18.8920   11.7530   20.2590 C   0  0  0  0  0  0  0  0  0  0  0  0
   20.1950   11.7970   20.7440 C   0  0  0  0  0  0  0  0  0  0  0  0
   23.4880   10.6920   20.5300 C   0  0  0  0  0  0  0  0  0  0  0  0
   23.2110   10.7890   19.1730 C   0  0  0  0  0  0  0  0  0  0  0  0
   24.2350   10.8650   18.2430 C   0  0  0  0  0  0  0  0  0  0  0  0
   25.5500   10.8410   18.6560 C   0  0  0  0  0  0  0  0  0  0  0  0
   25.8710   10.7460   20.0070 C   0  0  0  0  0  0  0  0  0  0  0  0
   24.8260   10.6610   20.9430 C   0  0  0  0  0  0  0  0  0  0  0  0
    0.0000    0.0000    0.0000 H   0  0  0  0  0  0  0  0  0  0  0  0
    0.0000    0.0000    0.0000 H   0  0  0  0  0  0  0  0  0  0  0  0
    0.0000    0.0000    0.0000 H   0  0  0  0  0  0  0  0  0  0  0  0
    0.0000    0.0000    0.0000 H   0  0  0  0  0  0  0  0  0  0  0  0
    0.0000    0.0000    0.0000 H   0  0  0  0  0  0  0  0  0  0  0  0
    0.0000    0.0000    0.0000 H   0  0  0  0  0  0  0  0  0  0  0  0
    0.0000    0.0000    0.0000 H   0  0  0  0  0  0  0  0  0  0  0  0
    0.0000    0.0000    0.0000 H   0  0  0  0  0  0  0  0  0  0  0  0
    0.0000    0.0000    0.0000 H   0  0  0  0  0  0  0  0  0  0  0  0
    0.0000    0.0000    0.0000 H   0  0  0  0  0  0  0  0  0  0  0  0
    0.0000    0.0000    0.0000 H   0  0  0  0  0  0  0  0  0  0  0  0
    0.0000    0.0000    0.0000 H   0  0  0  0  0  0  0  0  0  0  0  0
    0.0000    0.0000    0.0000 H   0  0  0  0  0  0  0  0  0  0  0  0
    0.0000    0.0000    0.0000 H   0  0  0  0  0  0  0  0  0  0  0  0
   12.3081    5.2224    8.9871 C   0  0  0  0  0  0  0  0  0  0  0  0
   11.6097    6.5009    9.2698 C   0  0  0  0  0  0  0  0  0  0  0  0
   10.3022    6.4789    8.5809 C   0  0  0  0  0  0  0  0  0  0  0  0
    9.5809    7.8008    8.8736 C   0  0  0  0  0  0  0  0  0  0  0  0
    8.2316    7.8396    8.1933 C   0  0  0  0  0  0  0  0  0  0  0  0
   13.0026    5.1840    8.1837 H   0  0  0  0  0  0  0  0  0  0  0  0
   12.2258    4.4296    9.6983 H   0  0  0  0  0  0  0  0  0  0  0  0
   11.3975    6.5229   10.3790 H   0  0  0  0  0  0  0  0  0  0  0  0
   12.1545    7.4098    8.9738 H   0  0  0  0  0  0  0  0  0  0  0  0
   10.3297    6.2736    7.5029 H   0  0  0  0  0  0  0  0  0  0  0  0
    9.6618    5.6975    9.0849 H   0  0  0  0  0  0  0  0  0  0  0  0
    9.4486    7.9610    9.9422 H   0  0  0  0  0  0  0  0  0  0  0  0
   10.2080    8.6037    8.4487 H   0  0  0  0  0  0  0  0  0  0  0  0
    8.2818    8.4509    7.2498 H   0  0  0  0  0  0  0  0  0  0  0  0
    7.5236    8.3985    8.8522 H   0  0  0  0  0  0  0  0  0  0  0  0
    7.8381    6.8540    7.9349 H   0  0  0  0  0  0  0  0  0  0  0  0
  1  3  2  0
  1  4  1  0
  1  5  1  0
  2  4  1  0
  2  6  1  0
  4  9  1  0
  4 15  1  0
  5  6  1  0
  5  8  1  0
  6  7  2  3
  9 10  2  0
  9 14  1  0
 10 11  1  0
 11 12  2  0
 12 13  1  0
 13 14  2  0
 15 16  2  0
 15 20  1  0
 16 17  1  0
 17 18  2  0
 18 19  1  0
 19 20  2  0
  2 21  1  0
  7 22  1  0
  8 23  1  0
  8 24  1  0
  8 25  1  0
 10 26  1  0
 11 27  1  0
 12 28  1  0
 13 29  1  0
 14 30  1  0
 16 31  1  0
 17 32  1  0
 19 33  1  0
 20 34  1  0
 35 36  1  0
 36 37  1  0
 37 38  1  0
 38 39  1  0
 35 40  1  0
 35 41  1  0
 36 42  1  0
 36 43  1  0
 37 44  1  0
 37 45  1  0
 38 46  1  0
 38 47  1  0
 39 48  1  0
 39 49  1  0
 39 50  1  0
 18 35  1  0
M  END
>  <attachment_point>  (76) 
32

>  <score>  (76) 
<NA>

$$$$
4djw
     RDKit          3D

 45 48  0  0  0  0  0  0  0  0999 V2000
   22.4950   11.8750   22.5810 C   0  0  0  0  0  0  0  0  0  0  0  0
   22.5380    9.4930   22.4640 N   0  0  0  0  0  0  0  0  0  0  0  0
   22.3600   13.0630   22.3480 O   0  0  0  0  0  0  0  0  0  0  0  0
   22.3390   10.6680   21.5610 C   0  0  0  0  0  0  0  0  0  0  0  0
   22.7860   11.3350   23.8120 N   0  0  0  0  0  0  0  0  0  0  0  0
   22.7800    9.9140   23.7010 C   0  0  0  0  0  0  0  0  0  0  0  0
   22.9970    9.1110   24.7490 N   0  0  0  0  0  0  0  0  0  0  0  0
   23.0220   12.1410   25.0180 C   0  0  0  0  0  0  0  0  0  0  0  0
   20.9020   10.6270   21.0050 C   0  0  0  0  0  0  0  0  0  0  0  0
   20.2720    9.4140   20.7470 C   0  0  0  0  0  0  0  0  0  0  0  0
   18.9690    9.3760   20.2600 C   0  0  0  0  0  0  0  0  0  0  0  0
   18.2800   10.5440   20.0210 C   0  0  0  0  0  0  0  0  0  0  0  0
   18.8920   11.7530   20.2590 C   0  0  0  0  0  0  0  0  0  0  0  0
   20.1950   11.7970   20.7440 C   0  0  0  0  0  0  0  0  0  0  0  0
   23.4880   10.6920   20.5300 C   0  0  0  0  0  0  0  0  0  0  0  0
   23.2110   10.7890   19.1730 C   0  0  0  0  0  0  0  0  0  0  0  0
   24.2350   10.8650   18.2430 C   0  0  0  0  0  0  0  0  0  0  0  0
   25.5500   10.8410   18.6560 C   0  0  0  0  0  0  0  0  0  0  0  0
   25.8710   10.7460   20.0070 C   0  0  0  0  0  0  0  0  0  0  0  0
   24.8260   10.6610   20.9430 C   0  0  0  0  0  0  0  0  0  0  0  0
    0.0000    0.0000    0.0000 H   0  0  0  0  0  0  0  0  0  0  0  0
    0.0000    0.0000    0.0000 H   0  0  0  0  0  0  0  0  0  0  0  0
    0.0000    0.0000    0.0000 H   0  0  0  0  0  0  0  0  0  0  0  0
    0.0000    0.0000    0.0000 H   0  0  0  0  0  0  0  0  0  0  0  0
    0.0000    0.0000    0.0000 H   0  0  0  0  0  0  0  0  0  0  0  0
    0.0000    0.0000    0.0000 H   0  0  0  0  0  0  0  0  0  0  0  0
    0.0000    0.0000    0.0000 H   0  0  0  0  0  0  0  0  0  0  0  0
    0.0000    0.0000    0.0000 H   0  0  0  0  0  0  0  0  0  0  0  0
    0.0000    0.0000    0.0000 H   0  0  0  0  0  0  0  0  0  0  0  0
    0.0000    0.0000    0.0000 H   0  0  0  0  0  0  0  0  0  0  0  0
    0.0000    0.0000    0.0000 H   0  0  0  0  0  0  0  0  0  0  0  0
    0.0000    0.0000    0.0000 H   0  0  0  0  0  0  0  0  0  0  0  0
    0.0000    0.0000    0.0000 H   0  0  0  0  0  0  0  0  0  0  0  0
    0.0000    0.0000    0.0000 H   0  0  0  0  0  0  0  0  0  0  0  0
   12.4286    5.2735    9.0751 C   0  0  0  0  0  0  0  0  0  0  0  0
   12.6916    4.4747    7.9760 C   0  0  0  0  0  0  0  0  0  0  0  0
   11.6033    4.0417    7.2225 C   0  0  0  0  0  0  0  0  0  0  0  0
   10.3088    4.3880    7.5475 C   0  0  0  0  0  0  0  0  0  0  0  0
   10.0868    5.1858    8.6504 C   0  0  0  0  0  0  0  0  0  0  0  0
   11.1513    5.6277    9.4136 C   0  0  0  0  0  0  0  0  0  0  0  0
   10.9401    6.4203   10.5105 F   0  0  0  0  0  0  0  0  0  0  0  0
   13.6960    4.1851    7.6941 H   0  0  0  0  0  0  0  0  0  0  0  0
   11.7340    3.4092    6.3422 H   0  0  0  0  0  0  0  0  0  0  0  0
    9.4869    4.0412    6.9502 H   0  0  0  0  0  0  0  0  0  0  0  0
    9.1025    5.4795    8.9407 H   0  0  0  0  0  0  0  0  0  0  0  0
  1  3  2  0
  1  4  1  0
  1  5  1  0
  2  4  1  0
  2  6  1  0
  4  9  1  0
  4 15  1  0
  5  6  1  0
  5  8  1  0
  6  7  2  3
  9 10  2  0
  9 14  1  0
 10 11  1  0
 11 12  2  0
 12 13  1  0
 13 14  2  0
 15 16  2  0
 15 20  1  0
 16 17  1  0
 17 18  2  0
 18 19  1  0
 19 20  2  0
  2 21  1  0
  7 22  1  0
  8 23  1  0
  8 24  1  0
  8 25  1  0
 10 26  1  0
 11 27  1  0
 12 28  1  0
 13 29  1  0
 14 30  1  0
 16 31  1  0
 17 32  1  0
 19 33  1  0
 20 34  1  0
 35 36  2  0
 36 37  1  0
 37 38  2  0
 38 39  1  0
 39 40  2  0
 40 41  1  0
 40 35  1  0
 36 42  1  0
 37 43  1  0
 38 44  1  0
 39 45  1  0
 18 35  1  0
M  END
>  <attachment_point>  (77) 
32

>  <score>  (77) 
<NA>

$$$$
4djw
     RDKit          3D

 50 53  0  0  0  0  0  0  0  0999 V2000
   22.4950   11.8750   22.5810 C   0  0  0  0  0  0  0  0  0  0  0  0
   22.5380    9.4930   22.4640 N   0  0  0  0  0  0  0  0  0  0  0  0
   22.3600   13.0630   22.3480 O   0  0  0  0  0  0  0  0  0  0  0  0
   22.3390   10.6680   21.5610 C   0  0  0  0  0  0  0  0  0  0  0  0
   22.7860   11.3350   23.8120 N   0  0  0  0  0  0  0  0  0  0  0  0
   22.7800    9.9140   23.7010 C   0  0  0  0  0  0  0  0  0  0  0  0
   22.9970    9.1110   24.7490 N   0  0  0  0  0  0  0  0  0  0  0  0
   23.0220   12.1410   25.0180 C   0  0  0  0  0  0  0  0  0  0  0  0
   20.9020   10.6270   21.0050 C   0  0  0  0  0  0  0  0  0  0  0  0
   20.2720    9.4140   20.7470 C   0  0  0  0  0  0  0  0  0  0  0  0
   18.9690    9.3760   20.2600 C   0  0  0  0  0  0  0  0  0  0  0  0
   18.2800   10.5440   20.0210 C   0  0  0  0  0  0  0  0  0  0  0  0
   18.8920   11.7530   20.2590 C   0  0  0  0  0  0  0  0  0  0  0  0
   20.1950   11.7970   20.7440 C   0  0  0  0  0  0  0  0  0  0  0  0
   23.4880   10.6920   20.5300 C   0  0  0  0  0  0  0  0  0  0  0  0
   23.2110   10.7890   19.1730 C   0  0  0  0  0  0  0  0  0  0  0  0
   24.2350   10.8650   18.2430 C   0  0  0  0  0  0  0  0  0  0  0  0
   25.5500   10.8410   18.6560 C   0  0  0  0  0  0  0  0  0  0  0  0
   25.8710   10.7460   20.0070 C   0  0  0  0  0  0  0  0  0  0  0  0
   24.8260   10.6610   20.9430 C   0  0  0  0  0  0  0  0  0  0  0  0
    0.0000    0.0000    0.0000 H   0  0  0  0  0  0  0  0  0  0  0  0
    0.0000    0.0000    0.0000 H   0  0  0  0  0  0  0  0  0  0  0  0
    0.0000    0.0000    0.0000 H   0  0  0  0  0  0  0  0  0  0  0  0
    0.0000    0.0000    0.0000 H   0  0  0  0  0  0  0  0  0  0  0  0
    0.0000    0.0000    0.0000 H   0  0  0  0  0  0  0  0  0  0  0  0
    0.0000    0.0000    0.0000 H   0  0  0  0  0  0  0  0  0  0  0  0
    0.0000    0.0000    0.0000 H   0  0  0  0  0  0  0  0  0  0  0  0
    0.0000    0.0000    0.0000 H   0  0  0  0  0  0  0  0  0  0  0  0
    0.0000    0.0000    0.0000 H   0  0  0  0  0  0  0  0  0  0  0  0
    0.0000    0.0000    0.0000 H   0  0  0  0  0  0  0  0  0  0  0  0
    0.0000    0.0000    0.0000 H   0  0  0  0  0  0  0  0  0  0  0  0
    0.0000    0.0000    0.0000 H   0  0  0  0  0  0  0  0  0  0  0  0
    0.0000    0.0000    0.0000 H   0  0  0  0  0  0  0  0  0  0  0  0
    0.0000    0.0000    0.0000 H   0  0  0  0  0  0  0  0  0  0  0  0
   12.4401    5.2784    9.0834 C   0  0  0  0  0  0  0  0  0  0  0  0
   11.5680    6.1283    8.8138 O   0  0  0  0  0  0  0  0  0  0  0  0
   12.4358    3.9236    8.6732 N   0  0  0  0  0  0  0  0  0  0  0  0
   11.3455    3.4187    7.8643 C   0  0  0  0  0  0  0  0  0  0  0  0
   10.9201    2.0875    8.4279 C   0  0  0  0  0  0  0  0  0  0  0  0
   12.0162    1.2377    8.3648 O   0  0  0  0  0  0  0  0  0  0  0  0
   12.9933    1.6016    9.2696 C   0  0  0  0  0  0  0  0  0  0  0  0
   13.4806    2.9903    9.0217 C   0  0  0  0  0  0  0  0  0  0  0  0
   11.6293    3.2693    6.8125 H   0  0  0  0  0  0  0  0  0  0  0  0
   10.4669    4.1146    7.8760 H   0  0  0  0  0  0  0  0  0  0  0  0
   10.6067    2.2487    9.4743 H   0  0  0  0  0  0  0  0  0  0  0  0
   10.1133    1.6606    7.7992 H   0  0  0  0  0  0  0  0  0  0  0  0
   13.8638    0.9060    9.0838 H   0  0  0  0  0  0  0  0  0  0  0  0
   12.6275    1.4654   10.3197 H   0  0  0  0  0  0  0  0  0  0  0  0
   14.2084    2.9907    8.1860 H   0  0  0  0  0  0  0  0  0  0  0  0
   13.9614    3.3985    9.9532 H   0  0  0  0  0  0  0  0  0  0  0  0
  1  3  2  0
  1  4  1  0
  1  5  1  0
  2  4  1  0
  2  6  1  0
  4  9  1  0
  4 15  1  0
  5  6  1  0
  5  8  1  0
  6  7  2  3
  9 10  2  0
  9 14  1  0
 10 11  1  0
 11 12  2  0
 12 13  1  0
 13 14  2  0
 15 16  2  0
 15 20  1  0
 16 17  1  0
 17 18  2  0
 18 19  1  0
 19 20  2  0
  2 21  1  0
  7 22  1  0
  8 23  1  0
  8 24  1  0
  8 25  1  0
 10 26  1  0
 11 27  1  0
 12 28  1  0
 13 29  1  0
 14 30  1  0
 16 31  1  0
 17 32  1  0
 19 33  1  0
 20 34  1  0
 35 36  2  0
 35 37  1  0
 37 38  1  0
 38 39  1  0
 39 40  1  0
 40 41  1  0
 41 42  1  0
 42 37  1  0
 38 43  1  0
 38 44  1  0
 39 45  1  0
 39 46  1  0
 41 47  1  0
 41 48  1  0
 42 49  1  0
 42 50  1  0
 18 35  1  0
M  END
>  <attachment_point>  (78) 
32

>  <score>  (78) 
<NA>

$$$$
4djw
     RDKit          3D

 39 41  0  0  0  0  0  0  0  0999 V2000
   22.4950   11.8750   22.5810 C   0  0  0  0  0  0  0  0  0  0  0  0
   22.5380    9.4930   22.4640 N   0  0  0  0  0  0  0  0  0  0  0  0
   22.3600   13.0630   22.3480 O   0  0  0  0  0  0  0  0  0  0  0  0
   22.3390   10.6680   21.5610 C   0  0  0  0  0  0  0  0  0  0  0  0
   22.7860   11.3350   23.8120 N   0  0  0  0  0  0  0  0  0  0  0  0
   22.7800    9.9140   23.7010 C   0  0  0  0  0  0  0  0  0  0  0  0
   22.9970    9.1110   24.7490 N   0  0  0  0  0  0  0  0  0  0  0  0
   23.0220   12.1410   25.0180 C   0  0  0  0  0  0  0  0  0  0  0  0
   20.9020   10.6270   21.0050 C   0  0  0  0  0  0  0  0  0  0  0  0
   20.2720    9.4140   20.7470 C   0  0  0  0  0  0  0  0  0  0  0  0
   18.9690    9.3760   20.2600 C   0  0  0  0  0  0  0  0  0  0  0  0
   18.2800   10.5440   20.0210 C   0  0  0  0  0  0  0  0  0  0  0  0
   18.8920   11.7530   20.2590 C   0  0  0  0  0  0  0  0  0  0  0  0
   20.1950   11.7970   20.7440 C   0  0  0  0  0  0  0  0  0  0  0  0
   23.4880   10.6920   20.5300 C   0  0  0  0  0  0  0  0  0  0  0  0
   23.2110   10.7890   19.1730 C   0  0  0  0  0  0  0  0  0  0  0  0
   24.2350   10.8650   18.2430 C   0  0  0  0  0  0  0  0  0  0  0  0
   25.5500   10.8410   18.6560 C   0  0  0  0  0  0  0  0  0  0  0  0
   25.8710   10.7460   20.0070 C   0  0  0  0  0  0  0  0  0  0  0  0
   24.8260   10.6610   20.9430 C   0  0  0  0  0  0  0  0  0  0  0  0
    0.0000    0.0000    0.0000 H   0  0  0  0  0  0  0  0  0  0  0  0
    0.0000    0.0000    0.0000 H   0  0  0  0  0  0  0  0  0  0  0  0
    0.0000    0.0000    0.0000 H   0  0  0  0  0  0  0  0  0  0  0  0
    0.0000    0.0000    0.0000 H   0  0  0  0  0  0  0  0  0  0  0  0
    0.0000    0.0000    0.0000 H   0  0  0  0  0  0  0  0  0  0  0  0
    0.0000    0.0000    0.0000 H   0  0  0  0  0  0  0  0  0  0  0  0
    0.0000    0.0000    0.0000 H   0  0  0  0  0  0  0  0  0  0  0  0
    0.0000    0.0000    0.0000 H   0  0  0  0  0  0  0  0  0  0  0  0
    0.0000    0.0000    0.0000 H   0  0  0  0  0  0  0  0  0  0  0  0
    0.0000    0.0000    0.0000 H   0  0  0  0  0  0  0  0  0  0  0  0
    0.0000    0.0000    0.0000 H   0  0  0  0  0  0  0  0  0  0  0  0
    0.0000    0.0000    0.0000 H   0  0  0  0  0  0  0  0  0  0  0  0
    0.0000    0.0000    0.0000 H   0  0  0  0  0  0  0  0  0  0  0  0
    0.0000    0.0000    0.0000 H   0  0  0  0  0  0  0  0  0  0  0  0
   12.5561    5.3276    9.1682 O   0  0  0  0  0  0  0  0  0  0  0  0
   11.1905    5.4922    9.3457 C   0  0  0  0  0  0  0  0  0  0  0  0
   10.5553    4.8605    8.3098 F   0  0  0  0  0  0  0  0  0  0  0  0
   10.8403    4.9503   10.5630 F   0  0  0  0  0  0  0  0  0  0  0  0
   10.9346    6.8429    9.3358 F   0  0  0  0  0  0  0  0  0  0  0  0
  1  3  2  0
  1  4  1  0
  1  5  1  0
  2  4  1  0
  2  6  1  0
  4  9  1  0
  4 15  1  0
  5  6  1  0
  5  8  1  0
  6  7  2  3
  9 10  2  0
  9 14  1  0
 10 11  1  0
 11 12  2  0
 12 13  1  0
 13 14  2  0
 15 16  2  0
 15 20  1  0
 16 17  1  0
 17 18  2  0
 18 19  1  0
 19 20  2  0
  2 21  1  0
  7 22  1  0
  8 23  1  0
  8 24  1  0
  8 25  1  0
 10 26  1  0
 11 27  1  0
 12 28  1  0
 13 29  1  0
 14 30  1  0
 16 31  1  0
 17 32  1  0
 19 33  1  0
 20 34  1  0
 35 36  1  0
 36 37  1  0
 36 38  1  0
 36 39  1  0
 18 35  1  0
M  END
>  <attachment_point>  (79) 
32

>  <score>  (79) 
<NA>

$$$$
4djw
     RDKit          3D

 42 44  0  0  0  0  0  0  0  0999 V2000
   22.4950   11.8750   22.5810 C   0  0  0  0  0  0  0  0  0  0  0  0
   22.5380    9.4930   22.4640 N   0  0  0  0  0  0  0  0  0  0  0  0
   22.3600   13.0630   22.3480 O   0  0  0  0  0  0  0  0  0  0  0  0
   22.3390   10.6680   21.5610 C   0  0  0  0  0  0  0  0  0  0  0  0
   22.7860   11.3350   23.8120 N   0  0  0  0  0  0  0  0  0  0  0  0
   22.7800    9.9140   23.7010 C   0  0  0  0  0  0  0  0  0  0  0  0
   22.9970    9.1110   24.7490 N   0  0  0  0  0  0  0  0  0  0  0  0
   23.0220   12.1410   25.0180 C   0  0  0  0  0  0  0  0  0  0  0  0
   20.9020   10.6270   21.0050 C   0  0  0  0  0  0  0  0  0  0  0  0
   20.2720    9.4140   20.7470 C   0  0  0  0  0  0  0  0  0  0  0  0
   18.9690    9.3760   20.2600 C   0  0  0  0  0  0  0  0  0  0  0  0
   18.2800   10.5440   20.0210 C   0  0  0  0  0  0  0  0  0  0  0  0
   18.8920   11.7530   20.2590 C   0  0  0  0  0  0  0  0  0  0  0  0
   20.1950   11.7970   20.7440 C   0  0  0  0  0  0  0  0  0  0  0  0
   23.4880   10.6920   20.5300 C   0  0  0  0  0  0  0  0  0  0  0  0
   23.2110   10.7890   19.1730 C   0  0  0  0  0  0  0  0  0  0  0  0
   24.2350   10.8650   18.2430 C   0  0  0  0  0  0  0  0  0  0  0  0
   25.5500   10.8410   18.6560 C   0  0  0  0  0  0  0  0  0  0  0  0
   25.8710   10.7460   20.0070 C   0  0  0  0  0  0  0  0  0  0  0  0
   24.8260   10.6610   20.9430 C   0  0  0  0  0  0  0  0  0  0  0  0
    0.0000    0.0000    0.0000 H   0  0  0  0  0  0  0  0  0  0  0  0
    0.0000    0.0000    0.0000 H   0  0  0  0  0  0  0  0  0  0  0  0
    0.0000    0.0000    0.0000 H   0  0  0  0  0  0  0  0  0  0  0  0
    0.0000    0.0000    0.0000 H   0  0  0  0  0  0  0  0  0  0  0  0
    0.0000    0.0000    0.0000 H   0  0  0  0  0  0  0  0  0  0  0  0
    0.0000    0.0000    0.0000 H   0  0  0  0  0  0  0  0  0  0  0  0
    0.0000    0.0000    0.0000 H   0  0  0  0  0  0  0  0  0  0  0  0
    0.0000    0.0000    0.0000 H   0  0  0  0  0  0  0  0  0  0  0  0
    0.0000    0.0000    0.0000 H   0  0  0  0  0  0  0  0  0  0  0  0
    0.0000    0.0000    0.0000 H   0  0  0  0  0  0  0  0  0  0  0  0
    0.0000    0.0000    0.0000 H   0  0  0  0  0  0  0  0  0  0  0  0
    0.0000    0.0000    0.0000 H   0  0  0  0  0  0  0  0  0  0  0  0
    0.0000    0.0000    0.0000 H   0  0  0  0  0  0  0  0  0  0  0  0
    0.0000    0.0000    0.0000 H   0  0  0  0  0  0  0  0  0  0  0  0
   12.4542    5.2844    9.0938 C   0  0  0  0  0  0  0  0  0  0  0  0
   11.2970    4.9903    9.7864 O   0  0  0  0  0  0  0  0  0  0  0  0
   10.7697    6.0555   10.4731 C   0  0  0  0  0  0  0  0  0  0  0  0
   12.2701    5.9819    8.2440 H   0  0  0  0  0  0  0  0  0  0  0  0
   12.8114    4.3165    8.6441 H   0  0  0  0  0  0  0  0  0  0  0  0
    9.8511    5.7053   10.9868 H   0  0  0  0  0  0  0  0  0  0  0  0
   10.4642    6.8389    9.7625 H   0  0  0  0  0  0  0  0  0  0  0  0
   11.4344    6.4449   11.2788 H   0  0  0  0  0  0  0  0  0  0  0  0
  1  3  2  0
  1  4  1  0
  1  5  1  0
  2  4  1  0
  2  6  1  0
  4  9  1  0
  4 15  1  0
  5  6  1  0
  5  8  1  0
  6  7  2  3
  9 10  2  0
  9 14  1  0
 10 11  1  0
 11 12  2  0
 12 13  1  0
 13 14  2  0
 15 16  2  0
 15 20  1  0
 16 17  1  0
 17 18  2  0
 18 19  1  0
 19 20  2  0
  2 21  1  0
  7 22  1  0
  8 23  1  0
  8 24  1  0
  8 25  1  0
 10 26  1  0
 11 27  1  0
 12 28  1  0
 13 29  1  0
 14 30  1  0
 16 31  1  0
 17 32  1  0
 19 33  1  0
 20 34  1  0
 35 36  1  0
 36 37  1  0
 35 38  1  0
 35 39  1  0
 37 40  1  0
 37 41  1  0
 37 42  1  0
 18 35  1  0
M  END
>  <attachment_point>  (80) 
32

>  <score>  (80) 
<NA>

$$$$
4djw
     RDKit          3D

 53 56  0  0  0  0  0  0  0  0999 V2000
   22.4950   11.8750   22.5810 C   0  0  0  0  0  0  0  0  0  0  0  0
   22.5380    9.4930   22.4640 N   0  0  0  0  0  0  0  0  0  0  0  0
   22.3600   13.0630   22.3480 O   0  0  0  0  0  0  0  0  0  0  0  0
   22.3390   10.6680   21.5610 C   0  0  0  0  0  0  0  0  0  0  0  0
   22.7860   11.3350   23.8120 N   0  0  0  0  0  0  0  0  0  0  0  0
   22.7800    9.9140   23.7010 C   0  0  0  0  0  0  0  0  0  0  0  0
   22.9970    9.1110   24.7490 N   0  0  0  0  0  0  0  0  0  0  0  0
   23.0220   12.1410   25.0180 C   0  0  0  0  0  0  0  0  0  0  0  0
   20.9020   10.6270   21.0050 C   0  0  0  0  0  0  0  0  0  0  0  0
   20.2720    9.4140   20.7470 C   0  0  0  0  0  0  0  0  0  0  0  0
   18.9690    9.3760   20.2600 C   0  0  0  0  0  0  0  0  0  0  0  0
   18.2800   10.5440   20.0210 C   0  0  0  0  0  0  0  0  0  0  0  0
   18.8920   11.7530   20.2590 C   0  0  0  0  0  0  0  0  0  0  0  0
   20.1950   11.7970   20.7440 C   0  0  0  0  0  0  0  0  0  0  0  0
   23.4880   10.6920   20.5300 C   0  0  0  0  0  0  0  0  0  0  0  0
   23.2110   10.7890   19.1730 C   0  0  0  0  0  0  0  0  0  0  0  0
   24.2350   10.8650   18.2430 C   0  0  0  0  0  0  0  0  0  0  0  0
   25.5500   10.8410   18.6560 C   0  0  0  0  0  0  0  0  0  0  0  0
   25.8710   10.7460   20.0070 C   0  0  0  0  0  0  0  0  0  0  0  0
   24.8260   10.6610   20.9430 C   0  0  0  0  0  0  0  0  0  0  0  0
    0.0000    0.0000    0.0000 H   0  0  0  0  0  0  0  0  0  0  0  0
    0.0000    0.0000    0.0000 H   0  0  0  0  0  0  0  0  0  0  0  0
    0.0000    0.0000    0.0000 H   0  0  0  0  0  0  0  0  0  0  0  0
    0.0000    0.0000    0.0000 H   0  0  0  0  0  0  0  0  0  0  0  0
    0.0000    0.0000    0.0000 H   0  0  0  0  0  0  0  0  0  0  0  0
    0.0000    0.0000    0.0000 H   0  0  0  0  0  0  0  0  0  0  0  0
    0.0000    0.0000    0.0000 H   0  0  0  0  0  0  0  0  0  0  0  0
    0.0000    0.0000    0.0000 H   0  0  0  0  0  0  0  0  0  0  0  0
    0.0000    0.0000    0.0000 H   0  0  0  0  0  0  0  0  0  0  0  0
    0.0000    0.0000    0.0000 H   0  0  0  0  0  0  0  0  0  0  0  0
    0.0000    0.0000    0.0000 H   0  0  0  0  0  0  0  0  0  0  0  0
    0.0000    0.0000    0.0000 H   0  0  0  0  0  0  0  0  0  0  0  0
    0.0000    0.0000    0.0000 H   0  0  0  0  0  0  0  0  0  0  0  0
    0.0000    0.0000    0.0000 H   0  0  0  0  0  0  0  0  0  0  0  0
   12.5249    5.3144    9.1454 N   0  0  0  0  0  0  0  0  0  0  0  0
   11.1272    5.3818    9.6149 C   0  0  0  0  0  0  0  0  0  0  0  0
   11.0727    4.5593   10.8676 C   0  0  0  0  0  0  0  0  0  0  0  0
   11.4600    5.3705   12.0802 C   0  0  0  0  0  0  0  0  0  0  0  0
   10.4197    6.4430   12.2155 C   0  0  0  0  0  0  0  0  0  0  0  0
   10.2535    7.3054   11.0173 C   0  0  0  0  0  0  0  0  0  0  0  0
   10.6488    6.7668    9.7164 C   0  0  0  0  0  0  0  0  0  0  0  0
   12.6818    4.4762    8.5422 H   0  0  0  0  0  0  0  0  0  0  0  0
   10.5580    4.7915    8.8348 H   0  0  0  0  0  0  0  0  0  0  0  0
   11.7920    3.7210   10.7747 H   0  0  0  0  0  0  0  0  0  0  0  0
   10.0760    4.1176   10.9950 H   0  0  0  0  0  0  0  0  0  0  0  0
   12.4423    5.8242   11.9678 H   0  0  0  0  0  0  0  0  0  0  0  0
   11.3744    4.7068   12.9664 H   0  0  0  0  0  0  0  0  0  0  0  0
   10.6793    7.0373   13.1208 H   0  0  0  0  0  0  0  0  0  0  0  0
    9.4373    5.9497   12.4786 H   0  0  0  0  0  0  0  0  0  0  0  0
    9.1735    7.6497   11.0221 H   0  0  0  0  0  0  0  0  0  0  0  0
   10.8103    8.2678   11.2374 H   0  0  0  0  0  0  0  0  0  0  0  0
   11.4366    7.4350    9.2491 H   0  0  0  0  0  0  0  0  0  0  0  0
    9.7817    6.8923    8.9980 H   0  0  0  0  0  0  0  0  0  0  0  0
  1  3  2  0
  1  4  1  0
  1  5  1  0
  2  4  1  0
  2  6  1  0
  4  9  1  0
  4 15  1  0
  5  6  1  0
  5  8  1  0
  6  7  2  3
  9 10  2  0
  9 14  1  0
 10 11  1  0
 11 12  2  0
 12 13  1  0
 13 14  2  0
 15 16  2  0
 15 20  1  0
 16 17  1  0
 17 18  2  0
 18 19  1  0
 19 20  2  0
  2 21  1  0
  7 22  1  0
  8 23  1  0
  8 24  1  0
  8 25  1  0
 10 26  1  0
 11 27  1  0
 12 28  1  0
 13 29  1  0
 14 30  1  0
 16 31  1  0
 17 32  1  0
 19 33  1  0
 20 34  1  0
 35 36  1  0
 36 37  1  0
 37 38  1  0
 38 39  1  0
 39 40  1  0
 40 41  1  0
 41 36  1  0
 35 42  1  0
 36 43  1  0
 37 44  1  0
 37 45  1  0
 38 46  1  0
 38 47  1  0
 39 48  1  0
 39 49  1  0
 40 50  1  0
 40 51  1  0
 41 52  1  0
 41 53  1  0
 18 35  1  0
M  END
>  <attachment_point>  (81) 
32

>  <score>  (81) 
<NA>

$$$$
4djw
     RDKit          3D

 37 39  0  0  0  0  0  0  0  0999 V2000
   22.4950   11.8750   22.5810 C   0  0  0  0  0  0  0  0  0  0  0  0
   22.5380    9.4930   22.4640 N   0  0  0  0  0  0  0  0  0  0  0  0
   22.3600   13.0630   22.3480 O   0  0  0  0  0  0  0  0  0  0  0  0
   22.3390   10.6680   21.5610 C   0  0  0  0  0  0  0  0  0  0  0  0
   22.7860   11.3350   23.8120 N   0  0  0  0  0  0  0  0  0  0  0  0
   22.7800    9.9140   23.7010 C   0  0  0  0  0  0  0  0  0  0  0  0
   22.9970    9.1110   24.7490 N   0  0  0  0  0  0  0  0  0  0  0  0
   23.0220   12.1410   25.0180 C   0  0  0  0  0  0  0  0  0  0  0  0
   20.9020   10.6270   21.0050 C   0  0  0  0  0  0  0  0  0  0  0  0
   20.2720    9.4140   20.7470 C   0  0  0  0  0  0  0  0  0  0  0  0
   18.9690    9.3760   20.2600 C   0  0  0  0  0  0  0  0  0  0  0  0
   18.2800   10.5440   20.0210 C   0  0  0  0  0  0  0  0  0  0  0  0
   18.8920   11.7530   20.2590 C   0  0  0  0  0  0  0  0  0  0  0  0
   20.1950   11.7970   20.7440 C   0  0  0  0  0  0  0  0  0  0  0  0
   23.4880   10.6920   20.5300 C   0  0  0  0  0  0  0  0  0  0  0  0
   23.2110   10.7890   19.1730 C   0  0  0  0  0  0  0  0  0  0  0  0
   24.2350   10.8650   18.2430 C   0  0  0  0  0  0  0  0  0  0  0  0
   25.5500   10.8410   18.6560 C   0  0  0  0  0  0  0  0  0  0  0  0
   25.8710   10.7460   20.0070 C   0  0  0  0  0  0  0  0  0  0  0  0
   24.8260   10.6610   20.9430 C   0  0  0  0  0  0  0  0  0  0  0  0
    0.0000    0.0000    0.0000 H   0  0  0  0  0  0  0  0  0  0  0  0
    0.0000    0.0000    0.0000 H   0  0  0  0  0  0  0  0  0  0  0  0
    0.0000    0.0000    0.0000 H   0  0  0  0  0  0  0  0  0  0  0  0
    0.0000    0.0000    0.0000 H   0  0  0  0  0  0  0  0  0  0  0  0
    0.0000    0.0000    0.0000 H   0  0  0  0  0  0  0  0  0  0  0  0
    0.0000    0.0000    0.0000 H   0  0  0  0  0  0  0  0  0  0  0  0
    0.0000    0.0000    0.0000 H   0  0  0  0  0  0  0  0  0  0  0  0
    0.0000    0.0000    0.0000 H   0  0  0  0  0  0  0  0  0  0  0  0
    0.0000    0.0000    0.0000 H   0  0  0  0  0  0  0  0  0  0  0  0
    0.0000    0.0000    0.0000 H   0  0  0  0  0  0  0  0  0  0  0  0
    0.0000    0.0000    0.0000 H   0  0  0  0  0  0  0  0  0  0  0  0
    0.0000    0.0000    0.0000 H   0  0  0  0  0  0  0  0  0  0  0  0
    0.0000    0.0000    0.0000 H   0  0  0  0  0  0  0  0  0  0  0  0
    0.0000    0.0000    0.0000 H   0  0  0  0  0  0  0  0  0  0  0  0
   12.3327    5.2328    9.0051 C   0  0  0  0  0  0  0  0  0  0  0  0
   12.0439    6.0944    8.3148 O   0  0  0  0  0  0  0  0  0  0  0  0
   12.1724    4.2770    9.3204 H   0  0  0  0  0  0  0  0  0  0  0  0
  1  3  2  0
  1  4  1  0
  1  5  1  0
  2  4  1  0
  2  6  1  0
  4  9  1  0
  4 15  1  0
  5  6  1  0
  5  8  1  0
  6  7  2  3
  9 10  2  0
  9 14  1  0
 10 11  1  0
 11 12  2  0
 12 13  1  0
 13 14  2  0
 15 16  2  0
 15 20  1  0
 16 17  1  0
 17 18  2  0
 18 19  1  0
 19 20  2  0
  2 21  1  0
  7 22  1  0
  8 23  1  0
  8 24  1  0
  8 25  1  0
 10 26  1  0
 11 27  1  0
 12 28  1  0
 13 29  1  0
 14 30  1  0
 16 31  1  0
 17 32  1  0
 19 33  1  0
 20 34  1  0
 35 36  2  0
 35 37  1  0
 18 35  1  0
M  END
>  <attachment_point>  (82) 
32

>  <score>  (82) 
<NA>

$$$$
4djw
     RDKit          3D

 49 52  0  0  0  0  0  0  0  0999 V2000
   22.4950   11.8750   22.5810 C   0  0  0  0  0  0  0  0  0  0  0  0
   22.5380    9.4930   22.4640 N   0  0  0  0  0  0  0  0  0  0  0  0
   22.3600   13.0630   22.3480 O   0  0  0  0  0  0  0  0  0  0  0  0
   22.3390   10.6680   21.5610 C   0  0  0  0  0  0  0  0  0  0  0  0
   22.7860   11.3350   23.8120 N   0  0  0  0  0  0  0  0  0  0  0  0
   22.7800    9.9140   23.7010 C   0  0  0  0  0  0  0  0  0  0  0  0
   22.9970    9.1110   24.7490 N   0  0  0  0  0  0  0  0  0  0  0  0
   23.0220   12.1410   25.0180 C   0  0  0  0  0  0  0  0  0  0  0  0
   20.9020   10.6270   21.0050 C   0  0  0  0  0  0  0  0  0  0  0  0
   20.2720    9.4140   20.7470 C   0  0  0  0  0  0  0  0  0  0  0  0
   18.9690    9.3760   20.2600 C   0  0  0  0  0  0  0  0  0  0  0  0
   18.2800   10.5440   20.0210 C   0  0  0  0  0  0  0  0  0  0  0  0
   18.8920   11.7530   20.2590 C   0  0  0  0  0  0  0  0  0  0  0  0
   20.1950   11.7970   20.7440 C   0  0  0  0  0  0  0  0  0  0  0  0
   23.4880   10.6920   20.5300 C   0  0  0  0  0  0  0  0  0  0  0  0
   23.2110   10.7890   19.1730 C   0  0  0  0  0  0  0  0  0  0  0  0
   24.2350   10.8650   18.2430 C   0  0  0  0  0  0  0  0  0  0  0  0
   25.5500   10.8410   18.6560 C   0  0  0  0  0  0  0  0  0  0  0  0
   25.8710   10.7460   20.0070 C   0  0  0  0  0  0  0  0  0  0  0  0
   24.8260   10.6610   20.9430 C   0  0  0  0  0  0  0  0  0  0  0  0
    0.0000    0.0000    0.0000 H   0  0  0  0  0  0  0  0  0  0  0  0
    0.0000    0.0000    0.0000 H   0  0  0  0  0  0  0  0  0  0  0  0
    0.0000    0.0000    0.0000 H   0  0  0  0  0  0  0  0  0  0  0  0
    0.0000    0.0000    0.0000 H   0  0  0  0  0  0  0  0  0  0  0  0
    0.0000    0.0000    0.0000 H   0  0  0  0  0  0  0  0  0  0  0  0
    0.0000    0.0000    0.0000 H   0  0  0  0  0  0  0  0  0  0  0  0
    0.0000    0.0000    0.0000 H   0  0  0  0  0  0  0  0  0  0  0  0
    0.0000    0.0000    0.0000 H   0  0  0  0  0  0  0  0  0  0  0  0
    0.0000    0.0000    0.0000 H   0  0  0  0  0  0  0  0  0  0  0  0
    0.0000    0.0000    0.0000 H   0  0  0  0  0  0  0  0  0  0  0  0
    0.0000    0.0000    0.0000 H   0  0  0  0  0  0  0  0  0  0  0  0
    0.0000    0.0000    0.0000 H   0  0  0  0  0  0  0  0  0  0  0  0
    0.0000    0.0000    0.0000 H   0  0  0  0  0  0  0  0  0  0  0  0
    0.0000    0.0000    0.0000 H   0  0  0  0  0  0  0  0  0  0  0  0
   12.4456    5.2807    9.0874 C   0  0  0  0  0  0  0  0  0  0  0  0
   11.5194    4.4122    9.5425 C   0  0  0  0  0  0  0  0  0  0  0  0
   10.4756    3.9780    8.7555 C   0  0  0  0  0  0  0  0  0  0  0  0
   10.4214    4.4765    7.4738 C   0  0  0  0  0  0  0  0  0  0  0  0
   11.3354    5.3421    7.0042 C   0  0  0  0  0  0  0  0  0  0  0  0
   12.4518    5.8353    7.7730 C   0  0  0  0  0  0  0  0  0  0  0  0
   13.2417    6.5999    7.3120 O   0  0  0  0  0  0  0  0  0  0  0  0
   14.1568    7.4863    6.7769 C   0  0  0  0  0  0  0  0  0  0  0  0
   11.5372    3.9976   10.5630 H   0  0  0  0  0  0  0  0  0  0  0  0
    9.7403    3.2821    9.1286 H   0  0  0  0  0  0  0  0  0  0  0  0
    9.5782    4.1075    6.8759 H   0  0  0  0  0  0  0  0  0  0  0  0
   11.2601    5.7196    5.9862 H   0  0  0  0  0  0  0  0  0  0  0  0
   14.4572    8.2137    7.5844 H   0  0  0  0  0  0  0  0  0  0  0  0
   13.8064    8.0468    5.8790 H   0  0  0  0  0  0  0  0  0  0  0  0
   15.0845    6.9592    6.4837 H   0  0  0  0  0  0  0  0  0  0  0  0
  1  3  2  0
  1  4  1  0
  1  5  1  0
  2  4  1  0
  2  6  1  0
  4  9  1  0
  4 15  1  0
  5  6  1  0
  5  8  1  0
  6  7  2  3
  9 10  2  0
  9 14  1  0
 10 11  1  0
 11 12  2  0
 12 13  1  0
 13 14  2  0
 15 16  2  0
 15 20  1  0
 16 17  1  0
 17 18  2  0
 18 19  1  0
 19 20  2  0
  2 21  1  0
  7 22  1  0
  8 23  1  0
  8 24  1  0
  8 25  1  0
 10 26  1  0
 11 27  1  0
 12 28  1  0
 13 29  1  0
 14 30  1  0
 16 31  1  0
 17 32  1  0
 19 33  1  0
 20 34  1  0
 35 36  2  0
 36 37  1  0
 37 38  2  0
 38 39  1  0
 39 40  2  0
 40 41  1  0
 41 42  1  0
 40 35  1  0
 36 43  1  0
 37 44  1  0
 38 45  1  0
 39 46  1  0
 42 47  1  0
 42 48  1  0
 42 49  1  0
 18 35  1  0
M  END
>  <attachment_point>  (83) 
32

>  <score>  (83) 
<NA>

$$$$
4djw
     RDKit          3D

 49 52  0  0  0  0  0  0  0  0999 V2000
   22.4950   11.8750   22.5810 C   0  0  0  0  0  0  0  0  0  0  0  0
   22.5380    9.4930   22.4640 N   0  0  0  0  0  0  0  0  0  0  0  0
   22.3600   13.0630   22.3480 O   0  0  0  0  0  0  0  0  0  0  0  0
   22.3390   10.6680   21.5610 C   0  0  0  0  0  0  0  0  0  0  0  0
   22.7860   11.3350   23.8120 N   0  0  0  0  0  0  0  0  0  0  0  0
   22.7800    9.9140   23.7010 C   0  0  0  0  0  0  0  0  0  0  0  0
   22.9970    9.1110   24.7490 N   0  0  0  0  0  0  0  0  0  0  0  0
   23.0220   12.1410   25.0180 C   0  0  0  0  0  0  0  0  0  0  0  0
   20.9020   10.6270   21.0050 C   0  0  0  0  0  0  0  0  0  0  0  0
   20.2720    9.4140   20.7470 C   0  0  0  0  0  0  0  0  0  0  0  0
   18.9690    9.3760   20.2600 C   0  0  0  0  0  0  0  0  0  0  0  0
   18.2800   10.5440   20.0210 C   0  0  0  0  0  0  0  0  0  0  0  0
   18.8920   11.7530   20.2590 C   0  0  0  0  0  0  0  0  0  0  0  0
   20.1950   11.7970   20.7440 C   0  0  0  0  0  0  0  0  0  0  0  0
   23.4880   10.6920   20.5300 C   0  0  0  0  0  0  0  0  0  0  0  0
   23.2110   10.7890   19.1730 C   0  0  0  0  0  0  0  0  0  0  0  0
   24.2350   10.8650   18.2430 C   0  0  0  0  0  0  0  0  0  0  0  0
   25.5500   10.8410   18.6560 C   0  0  0  0  0  0  0  0  0  0  0  0
   25.8710   10.7460   20.0070 C   0  0  0  0  0  0  0  0  0  0  0  0
   24.8260   10.6610   20.9430 C   0  0  0  0  0  0  0  0  0  0  0  0
    0.0000    0.0000    0.0000 H   0  0  0  0  0  0  0  0  0  0  0  0
    0.0000    0.0000    0.0000 H   0  0  0  0  0  0  0  0  0  0  0  0
    0.0000    0.0000    0.0000 H   0  0  0  0  0  0  0  0  0  0  0  0
    0.0000    0.0000    0.0000 H   0  0  0  0  0  0  0  0  0  0  0  0
    0.0000    0.0000    0.0000 H   0  0  0  0  0  0  0  0  0  0  0  0
    0.0000    0.0000    0.0000 H   0  0  0  0  0  0  0  0  0  0  0  0
    0.0000    0.0000    0.0000 H   0  0  0  0  0  0  0  0  0  0  0  0
    0.0000    0.0000    0.0000 H   0  0  0  0  0  0  0  0  0  0  0  0
    0.0000    0.0000    0.0000 H   0  0  0  0  0  0  0  0  0  0  0  0
    0.0000    0.0000    0.0000 H   0  0  0  0  0  0  0  0  0  0  0  0
    0.0000    0.0000    0.0000 H   0  0  0  0  0  0  0  0  0  0  0  0
    0.0000    0.0000    0.0000 H   0  0  0  0  0  0  0  0  0  0  0  0
    0.0000    0.0000    0.0000 H   0  0  0  0  0  0  0  0  0  0  0  0
    0.0000    0.0000    0.0000 H   0  0  0  0  0  0  0  0  0  0  0  0
   12.4408    5.2787    9.0840 C   0  0  0  0  0  0  0  0  0  0  0  0
   11.6387    4.5211    9.6789 O   0  0  0  0  0  0  0  0  0  0  0  0
   12.2448    5.6261    7.7221 N   0  0  0  0  0  0  0  0  0  0  0  0
   11.1292    5.1172    7.0078 C   0  0  0  0  0  0  0  0  0  0  0  0
   11.1779    3.9299    6.3101 C   0  0  0  0  0  0  0  0  0  0  0  0
   10.0841    3.4400    5.6153 C   0  0  0  0  0  0  0  0  0  0  0  0
    8.8875    4.1216    5.5890 C   0  0  0  0  0  0  0  0  0  0  0  0
    8.8318    5.3077    6.2834 C   0  0  0  0  0  0  0  0  0  0  0  0
    9.9315    5.7975    6.9804 C   0  0  0  0  0  0  0  0  0  0  0  0
   12.9186    6.2581    7.2348 H   0  0  0  0  0  0  0  0  0  0  0  0
   12.1232    3.3886    6.3292 H   0  0  0  0  0  0  0  0  0  0  0  0
   10.1964    2.5057    5.0933 H   0  0  0  0  0  0  0  0  0  0  0  0
    8.0174    3.7344    5.0377 H   0  0  0  0  0  0  0  0  0  0  0  0
    7.8994    5.8610    6.2762 H   0  0  0  0  0  0  0  0  0  0  0  0
    9.8744    6.7331    7.5233 H   0  0  0  0  0  0  0  0  0  0  0  0
  1  3  2  0
  1  4  1  0
  1  5  1  0
  2  4  1  0
  2  6  1  0
  4  9  1  0
  4 15  1  0
  5  6  1  0
  5  8  1  0
  6  7  2  3
  9 10  2  0
  9 14  1  0
 10 11  1  0
 11 12  2  0
 12 13  1  0
 13 14  2  0
 15 16  2  0
 15 20  1  0
 16 17  1  0
 17 18  2  0
 18 19  1  0
 19 20  2  0
  2 21  1  0
  7 22  1  0
  8 23  1  0
  8 24  1  0
  8 25  1  0
 10 26  1  0
 11 27  1  0
 12 28  1  0
 13 29  1  0
 14 30  1  0
 16 31  1  0
 17 32  1  0
 19 33  1  0
 20 34  1  0
 35 36  2  0
 35 37  1  0
 37 38  1  0
 38 39  2  0
 39 40  1  0
 40 41  2  0
 41 42  1  0
 42 43  2  0
 43 38  1  0
 37 44  1  0
 39 45  1  0
 40 46  1  0
 41 47  1  0
 42 48  1  0
 43 49  1  0
 18 35  1  0
M  END
>  <attachment_point>  (84) 
32

>  <score>  (84) 
<NA>

$$$$
4djw
     RDKit          3D

 48 50  0  0  0  0  0  0  0  0999 V2000
   22.4950   11.8750   22.5810 C   0  0  0  0  0  0  0  0  0  0  0  0
   22.5380    9.4930   22.4640 N   0  0  0  0  0  0  0  0  0  0  0  0
   22.3600   13.0630   22.3480 O   0  0  0  0  0  0  0  0  0  0  0  0
   22.3390   10.6680   21.5610 C   0  0  0  0  0  0  0  0  0  0  0  0
   22.7860   11.3350   23.8120 N   0  0  0  0  0  0  0  0  0  0  0  0
   22.7800    9.9140   23.7010 C   0  0  0  0  0  0  0  0  0  0  0  0
   22.9970    9.1110   24.7490 N   0  0  0  0  0  0  0  0  0  0  0  0
   23.0220   12.1410   25.0180 C   0  0  0  0  0  0  0  0  0  0  0  0
   20.9020   10.6270   21.0050 C   0  0  0  0  0  0  0  0  0  0  0  0
   20.2720    9.4140   20.7470 C   0  0  0  0  0  0  0  0  0  0  0  0
   18.9690    9.3760   20.2600 C   0  0  0  0  0  0  0  0  0  0  0  0
   18.2800   10.5440   20.0210 C   0  0  0  0  0  0  0  0  0  0  0  0
   18.8920   11.7530   20.2590 C   0  0  0  0  0  0  0  0  0  0  0  0
   20.1950   11.7970   20.7440 C   0  0  0  0  0  0  0  0  0  0  0  0
   23.4880   10.6920   20.5300 C   0  0  0  0  0  0  0  0  0  0  0  0
   23.2110   10.7890   19.1730 C   0  0  0  0  0  0  0  0  0  0  0  0
   24.2350   10.8650   18.2430 C   0  0  0  0  0  0  0  0  0  0  0  0
   25.5500   10.8410   18.6560 C   0  0  0  0  0  0  0  0  0  0  0  0
   25.8710   10.7460   20.0070 C   0  0  0  0  0  0  0  0  0  0  0  0
   24.8260   10.6610   20.9430 C   0  0  0  0  0  0  0  0  0  0  0  0
    0.0000    0.0000    0.0000 H   0  0  0  0  0  0  0  0  0  0  0  0
    0.0000    0.0000    0.0000 H   0  0  0  0  0  0  0  0  0  0  0  0
    0.0000    0.0000    0.0000 H   0  0  0  0  0  0  0  0  0  0  0  0
    0.0000    0.0000    0.0000 H   0  0  0  0  0  0  0  0  0  0  0  0
    0.0000    0.0000    0.0000 H   0  0  0  0  0  0  0  0  0  0  0  0
    0.0000    0.0000    0.0000 H   0  0  0  0  0  0  0  0  0  0  0  0
    0.0000    0.0000    0.0000 H   0  0  0  0  0  0  0  0  0  0  0  0
    0.0000    0.0000    0.0000 H   0  0  0  0  0  0  0  0  0  0  0  0
    0.0000    0.0000    0.0000 H   0  0  0  0  0  0  0  0  0  0  0  0
    0.0000    0.0000    0.0000 H   0  0  0  0  0  0  0  0  0  0  0  0
    0.0000    0.0000    0.0000 H   0  0  0  0  0  0  0  0  0  0  0  0
    0.0000    0.0000    0.0000 H   0  0  0  0  0  0  0  0  0  0  0  0
    0.0000    0.0000    0.0000 H   0  0  0  0  0  0  0  0  0  0  0  0
    0.0000    0.0000    0.0000 H   0  0  0  0  0  0  0  0  0  0  0  0
   12.4683    5.2904    9.1040 O   0  0  0  0  0  0  0  0  0  0  0  0
   13.0387    4.7831    7.9135 C   0  0  0  0  0  0  0  0  0  0  0  0
   11.9763    4.2637    6.9910 C   0  0  0  0  0  0  0  0  0  0  0  0
   10.9814    5.3265    6.5870 C   0  0  0  0  0  0  0  0  0  0  0  0
    9.9550    4.7096    5.6614 C   0  0  0  0  0  0  0  0  0  0  0  0
   13.7242    5.5068    7.4490 H   0  0  0  0  0  0  0  0  0  0  0  0
   13.6599    3.9213    8.2399 H   0  0  0  0  0  0  0  0  0  0  0  0
   12.4709    3.8546    6.0882 H   0  0  0  0  0  0  0  0  0  0  0  0
   11.4644    3.4321    7.5057 H   0  0  0  0  0  0  0  0  0  0  0  0
   10.4109    5.6452    7.5055 H   0  0  0  0  0  0  0  0  0  0  0  0
   11.4467    6.2279    6.1911 H   0  0  0  0  0  0  0  0  0  0  0  0
    9.2224    4.1051    6.2455 H   0  0  0  0  0  0  0  0  0  0  0  0
   10.4794    3.9959    4.9979 H   0  0  0  0  0  0  0  0  0  0  0  0
    9.4639    5.4785    5.0409 H   0  0  0  0  0  0  0  0  0  0  0  0
  1  3  2  0
  1  4  1  0
  1  5  1  0
  2  4  1  0
  2  6  1  0
  4  9  1  0
  4 15  1  0
  5  6  1  0
  5  8  1  0
  6  7  2  3
  9 10  2  0
  9 14  1  0
 10 11  1  0
 11 12  2  0
 12 13  1  0
 13 14  2  0
 15 16  2  0
 15 20  1  0
 16 17  1  0
 17 18  2  0
 18 19  1  0
 19 20  2  0
  2 21  1  0
  7 22  1  0
  8 23  1  0
  8 24  1  0
  8 25  1  0
 10 26  1  0
 11 27  1  0
 12 28  1  0
 13 29  1  0
 14 30  1  0
 16 31  1  0
 17 32  1  0
 19 33  1  0
 20 34  1  0
 35 36  1  0
 36 37  1  0
 37 38  1  0
 38 39  1  0
 36 40  1  0
 36 41  1  0
 37 42  1  0
 37 43  1  0
 38 44  1  0
 38 45  1  0
 39 46  1  0
 39 47  1  0
 39 48  1  0
 18 35  1  0
M  END
>  <attachment_point>  (85) 
32

>  <score>  (85) 
<NA>

$$$$
4djw
     RDKit          3D

 43 46  0  0  0  0  0  0  0  0999 V2000
   22.4950   11.8750   22.5810 C   0  0  0  0  0  0  0  0  0  0  0  0
   22.5380    9.4930   22.4640 N   0  0  0  0  0  0  0  0  0  0  0  0
   22.3600   13.0630   22.3480 O   0  0  0  0  0  0  0  0  0  0  0  0
   22.3390   10.6680   21.5610 C   0  0  0  0  0  0  0  0  0  0  0  0
   22.7860   11.3350   23.8120 N   0  0  0  0  0  0  0  0  0  0  0  0
   22.7800    9.9140   23.7010 C   0  0  0  0  0  0  0  0  0  0  0  0
   22.9970    9.1110   24.7490 N   0  0  0  0  0  0  0  0  0  0  0  0
   23.0220   12.1410   25.0180 C   0  0  0  0  0  0  0  0  0  0  0  0
   20.9020   10.6270   21.0050 C   0  0  0  0  0  0  0  0  0  0  0  0
   20.2720    9.4140   20.7470 C   0  0  0  0  0  0  0  0  0  0  0  0
   18.9690    9.3760   20.2600 C   0  0  0  0  0  0  0  0  0  0  0  0
   18.2800   10.5440   20.0210 C   0  0  0  0  0  0  0  0  0  0  0  0
   18.8920   11.7530   20.2590 C   0  0  0  0  0  0  0  0  0  0  0  0
   20.1950   11.7970   20.7440 C   0  0  0  0  0  0  0  0  0  0  0  0
   23.4880   10.6920   20.5300 C   0  0  0  0  0  0  0  0  0  0  0  0
   23.2110   10.7890   19.1730 C   0  0  0  0  0  0  0  0  0  0  0  0
   24.2350   10.8650   18.2430 C   0  0  0  0  0  0  0  0  0  0  0  0
   25.5500   10.8410   18.6560 C   0  0  0  0  0  0  0  0  0  0  0  0
   25.8710   10.7460   20.0070 C   0  0  0  0  0  0  0  0  0  0  0  0
   24.8260   10.6610   20.9430 C   0  0  0  0  0  0  0  0  0  0  0  0
    0.0000    0.0000    0.0000 H   0  0  0  0  0  0  0  0  0  0  0  0
    0.0000    0.0000    0.0000 H   0  0  0  0  0  0  0  0  0  0  0  0
    0.0000    0.0000    0.0000 H   0  0  0  0  0  0  0  0  0  0  0  0
    0.0000    0.0000    0.0000 H   0  0  0  0  0  0  0  0  0  0  0  0
    0.0000    0.0000    0.0000 H   0  0  0  0  0  0  0  0  0  0  0  0
    0.0000    0.0000    0.0000 H   0  0  0  0  0  0  0  0  0  0  0  0
    0.0000    0.0000    0.0000 H   0  0  0  0  0  0  0  0  0  0  0  0
    0.0000    0.0000    0.0000 H   0  0  0  0  0  0  0  0  0  0  0  0
    0.0000    0.0000    0.0000 H   0  0  0  0  0  0  0  0  0  0  0  0
    0.0000    0.0000    0.0000 H   0  0  0  0  0  0  0  0  0  0  0  0
    0.0000    0.0000    0.0000 H   0  0  0  0  0  0  0  0  0  0  0  0
    0.0000    0.0000    0.0000 H   0  0  0  0  0  0  0  0  0  0  0  0
    0.0000    0.0000    0.0000 H   0  0  0  0  0  0  0  0  0  0  0  0
    0.0000    0.0000    0.0000 H   0  0  0  0  0  0  0  0  0  0  0  0
   12.4484    5.2819    9.0895 C   0  0  0  0  0  0  0  0  0  0  0  0
   12.5850    4.0841    8.4245 C   0  0  0  0  0  0  0  0  0  0  0  0
   11.5643    3.6531    7.6805 N   0  0  0  0  0  0  0  0  0  0  0  0
   10.4253    4.3924    7.5934 C   0  0  0  0  0  0  0  0  0  0  0  0
   10.2924    5.5936    8.2622 C   0  0  0  0  0  0  0  0  0  0  0  0
   11.3091    6.0262    9.0054 N   0  0  0  0  0  0  0  0  0  0  0  0
   13.5196    3.5518    8.5412 H   0  0  0  0  0  0  0  0  0  0  0  0
    9.6140    4.0096    6.9775 H   0  0  0  0  0  0  0  0  0  0  0  0
    9.3560    6.1269    8.1453 H   0  0  0  0  0  0  0  0  0  0  0  0
  1  3  2  0
  1  4  1  0
  1  5  1  0
  2  4  1  0
  2  6  1  0
  4  9  1  0
  4 15  1  0
  5  6  1  0
  5  8  1  0
  6  7  2  3
  9 10  2  0
  9 14  1  0
 10 11  1  0
 11 12  2  0
 12 13  1  0
 13 14  2  0
 15 16  2  0
 15 20  1  0
 16 17  1  0
 17 18  2  0
 18 19  1  0
 19 20  2  0
  2 21  1  0
  7 22  1  0
  8 23  1  0
  8 24  1  0
  8 25  1  0
 10 26  1  0
 11 27  1  0
 12 28  1  0
 13 29  1  0
 14 30  1  0
 16 31  1  0
 17 32  1  0
 19 33  1  0
 20 34  1  0
 35 36  2  0
 36 37  1  0
 37 38  2  0
 38 39  1  0
 39 40  2  0
 40 35  1  0
 36 41  1  0
 38 42  1  0
 39 43  1  0
 18 35  1  0
M  END
>  <attachment_point>  (86) 
32

>  <score>  (86) 
<NA>

$$$$
4djw
     RDKit          3D

 51 55  0  0  0  0  0  0  0  0999 V2000
   22.4950   11.8750   22.5810 C   0  0  0  0  0  0  0  0  0  0  0  0
   22.5380    9.4930   22.4640 N   0  0  0  0  0  0  0  0  0  0  0  0
   22.3600   13.0630   22.3480 O   0  0  0  0  0  0  0  0  0  0  0  0
   22.3390   10.6680   21.5610 C   0  0  0  0  0  0  0  0  0  0  0  0
   22.7860   11.3350   23.8120 N   0  0  0  0  0  0  0  0  0  0  0  0
   22.7800    9.9140   23.7010 C   0  0  0  0  0  0  0  0  0  0  0  0
   22.9970    9.1110   24.7490 N   0  0  0  0  0  0  0  0  0  0  0  0
   23.0220   12.1410   25.0180 C   0  0  0  0  0  0  0  0  0  0  0  0
   20.9020   10.6270   21.0050 C   0  0  0  0  0  0  0  0  0  0  0  0
   20.2720    9.4140   20.7470 C   0  0  0  0  0  0  0  0  0  0  0  0
   18.9690    9.3760   20.2600 C   0  0  0  0  0  0  0  0  0  0  0  0
   18.2800   10.5440   20.0210 C   0  0  0  0  0  0  0  0  0  0  0  0
   18.8920   11.7530   20.2590 C   0  0  0  0  0  0  0  0  0  0  0  0
   20.1950   11.7970   20.7440 C   0  0  0  0  0  0  0  0  0  0  0  0
   23.4880   10.6920   20.5300 C   0  0  0  0  0  0  0  0  0  0  0  0
   23.2110   10.7890   19.1730 C   0  0  0  0  0  0  0  0  0  0  0  0
   24.2350   10.8650   18.2430 C   0  0  0  0  0  0  0  0  0  0  0  0
   25.5500   10.8410   18.6560 C   0  0  0  0  0  0  0  0  0  0  0  0
   25.8710   10.7460   20.0070 C   0  0  0  0  0  0  0  0  0  0  0  0
   24.8260   10.6610   20.9430 C   0  0  0  0  0  0  0  0  0  0  0  0
    0.0000    0.0000    0.0000 H   0  0  0  0  0  0  0  0  0  0  0  0
    0.0000    0.0000    0.0000 H   0  0  0  0  0  0  0  0  0  0  0  0
    0.0000    0.0000    0.0000 H   0  0  0  0  0  0  0  0  0  0  0  0
    0.0000    0.0000    0.0000 H   0  0  0  0  0  0  0  0  0  0  0  0
    0.0000    0.0000    0.0000 H   0  0  0  0  0  0  0  0  0  0  0  0
    0.0000    0.0000    0.0000 H   0  0  0  0  0  0  0  0  0  0  0  0
    0.0000    0.0000    0.0000 H   0  0  0  0  0  0  0  0  0  0  0  0
    0.0000    0.0000    0.0000 H   0  0  0  0  0  0  0  0  0  0  0  0
    0.0000    0.0000    0.0000 H   0  0  0  0  0  0  0  0  0  0  0  0
    0.0000    0.0000    0.0000 H   0  0  0  0  0  0  0  0  0  0  0  0
    0.0000    0.0000    0.0000 H   0  0  0  0  0  0  0  0  0  0  0  0
    0.0000    0.0000    0.0000 H   0  0  0  0  0  0  0  0  0  0  0  0
    0.0000    0.0000    0.0000 H   0  0  0  0  0  0  0  0  0  0  0  0
    0.0000    0.0000    0.0000 H   0  0  0  0  0  0  0  0  0  0  0  0
   12.4285    5.2735    9.0750 C   0  0  0  0  0  0  0  0  0  0  0  0
   12.2138    3.9296    8.9337 C   0  0  0  0  0  0  0  0  0  0  0  0
   11.1655    3.4446    8.1688 C   0  0  0  0  0  0  0  0  0  0  0  0
   10.3475    4.3821    7.5556 C   0  0  0  0  0  0  0  0  0  0  0  0
    9.2763    3.9624    6.7730 C   0  0  0  0  0  0  0  0  0  0  0  0
    8.4593    4.8923    6.1607 C   0  0  0  0  0  0  0  0  0  0  0  0
    8.6567    6.2484    6.2891 C   0  0  0  0  0  0  0  0  0  0  0  0
    9.7168    6.6700    7.0636 C   0  0  0  0  0  0  0  0  0  0  0  0
   10.5443    5.7411    7.6836 C   0  0  0  0  0  0  0  0  0  0  0  0
   11.6030    6.1861    8.4567 C   0  0  0  0  0  0  0  0  0  0  0  0
   12.8667    3.2183    9.4226 H   0  0  0  0  0  0  0  0  0  0  0  0
   10.9811    2.3851    8.0462 H   0  0  0  0  0  0  0  0  0  0  0  0
    9.1346    2.8939    6.6820 H   0  0  0  0  0  0  0  0  0  0  0  0
    7.6329    4.5721    5.5570 H   0  0  0  0  0  0  0  0  0  0  0  0
    8.0083    6.9755    5.8033 H   0  0  0  0  0  0  0  0  0  0  0  0
    9.9060    7.7377    7.1895 H   0  0  0  0  0  0  0  0  0  0  0  0
   11.7847    7.2644    8.5771 H   0  0  0  0  0  0  0  0  0  0  0  0
  1  3  2  0
  1  4  1  0
  1  5  1  0
  2  4  1  0
  2  6  1  0
  4  9  1  0
  4 15  1  0
  5  6  1  0
  5  8  1  0
  6  7  2  3
  9 10  2  0
  9 14  1  0
 10 11  1  0
 11 12  2  0
 12 13  1  0
 13 14  2  0
 15 16  2  0
 15 20  1  0
 16 17  1  0
 17 18  2  0
 18 19  1  0
 19 20  2  0
  2 21  1  0
  7 22  1  0
  8 23  1  0
  8 24  1  0
  8 25  1  0
 10 26  1  0
 11 27  1  0
 12 28  1  0
 13 29  1  0
 14 30  1  0
 16 31  1  0
 17 32  1  0
 19 33  1  0
 20 34  1  0
 35 36  2  0
 36 37  1  0
 37 38  2  0
 38 39  1  0
 39 40  2  0
 40 41  1  0
 41 42  2  0
 42 43  1  0
 43 44  2  0
 44 35  1  0
 43 38  1  0
 36 45  1  0
 37 46  1  0
 39 47  1  0
 40 48  1  0
 41 49  1  0
 42 50  1  0
 44 51  1  0
 18 35  1  0
M  END
>  <attachment_point>  (87) 
32

>  <score>  (87) 
<NA>

$$$$
4djw
     RDKit          3D

 51 55  0  0  0  0  0  0  0  0999 V2000
   22.4950   11.8750   22.5810 C   0  0  0  0  0  0  0  0  0  0  0  0
   22.5380    9.4930   22.4640 N   0  0  0  0  0  0  0  0  0  0  0  0
   22.3600   13.0630   22.3480 O   0  0  0  0  0  0  0  0  0  0  0  0
   22.3390   10.6680   21.5610 C   0  0  0  0  0  0  0  0  0  0  0  0
   22.7860   11.3350   23.8120 N   0  0  0  0  0  0  0  0  0  0  0  0
   22.7800    9.9140   23.7010 C   0  0  0  0  0  0  0  0  0  0  0  0
   22.9970    9.1110   24.7490 N   0  0  0  0  0  0  0  0  0  0  0  0
   23.0220   12.1410   25.0180 C   0  0  0  0  0  0  0  0  0  0  0  0
   20.9020   10.6270   21.0050 C   0  0  0  0  0  0  0  0  0  0  0  0
   20.2720    9.4140   20.7470 C   0  0  0  0  0  0  0  0  0  0  0  0
   18.9690    9.3760   20.2600 C   0  0  0  0  0  0  0  0  0  0  0  0
   18.2800   10.5440   20.0210 C   0  0  0  0  0  0  0  0  0  0  0  0
   18.8920   11.7530   20.2590 C   0  0  0  0  0  0  0  0  0  0  0  0
   20.1950   11.7970   20.7440 C   0  0  0  0  0  0  0  0  0  0  0  0
   23.4880   10.6920   20.5300 C   0  0  0  0  0  0  0  0  0  0  0  0
   23.2110   10.7890   19.1730 C   0  0  0  0  0  0  0  0  0  0  0  0
   24.2350   10.8650   18.2430 C   0  0  0  0  0  0  0  0  0  0  0  0
   25.5500   10.8410   18.6560 C   0  0  0  0  0  0  0  0  0  0  0  0
   25.8710   10.7460   20.0070 C   0  0  0  0  0  0  0  0  0  0  0  0
   24.8260   10.6610   20.9430 C   0  0  0  0  0  0  0  0  0  0  0  0
    0.0000    0.0000    0.0000 H   0  0  0  0  0  0  0  0  0  0  0  0
    0.0000    0.0000    0.0000 H   0  0  0  0  0  0  0  0  0  0  0  0
    0.0000    0.0000    0.0000 H   0  0  0  0  0  0  0  0  0  0  0  0
    0.0000    0.0000    0.0000 H   0  0  0  0  0  0  0  0  0  0  0  0
    0.0000    0.0000    0.0000 H   0  0  0  0  0  0  0  0  0  0  0  0
    0.0000    0.0000    0.0000 H   0  0  0  0  0  0  0  0  0  0  0  0
    0.0000    0.0000    0.0000 H   0  0  0  0  0  0  0  0  0  0  0  0
    0.0000    0.0000    0.0000 H   0  0  0  0  0  0  0  0  0  0  0  0
    0.0000    0.0000    0.0000 H   0  0  0  0  0  0  0  0  0  0  0  0
    0.0000    0.0000    0.0000 H   0  0  0  0  0  0  0  0  0  0  0  0
    0.0000    0.0000    0.0000 H   0  0  0  0  0  0  0  0  0  0  0  0
    0.0000    0.0000    0.0000 H   0  0  0  0  0  0  0  0  0  0  0  0
    0.0000    0.0000    0.0000 H   0  0  0  0  0  0  0  0  0  0  0  0
    0.0000    0.0000    0.0000 H   0  0  0  0  0  0  0  0  0  0  0  0
   12.4363    5.2768    9.0807 C   0  0  0  0  0  0  0  0  0  0  0  0
   12.6276    4.3371    8.0903 C   0  0  0  0  0  0  0  0  0  0  0  0
   11.5517    3.9004    7.3267 C   0  0  0  0  0  0  0  0  0  0  0  0
   10.3000    4.4208    7.5767 C   0  0  0  0  0  0  0  0  0  0  0  0
   10.0711    5.3660    8.5634 C   0  0  0  0  0  0  0  0  0  0  0  0
    8.8047    5.8814    8.8043 C   0  0  0  0  0  0  0  0  0  0  0  0
    8.5889    6.8225    9.7897 C   0  0  0  0  0  0  0  0  0  0  0  0
    9.6836    7.2332   10.5294 C   0  0  0  0  0  0  0  0  0  0  0  0
   10.9453    6.7173   10.2871 C   0  0  0  0  0  0  0  0  0  0  0  0
   11.1599    5.7785    9.3037 C   0  0  0  0  0  0  0  0  0  0  0  0
   13.6096    3.9435    7.9104 H   0  0  0  0  0  0  0  0  0  0  0  0
   11.7008    3.1556    6.5411 H   0  0  0  0  0  0  0  0  0  0  0  0
    9.4564    4.0754    6.9747 H   0  0  0  0  0  0  0  0  0  0  0  0
    7.9537    5.5461    8.2115 H   0  0  0  0  0  0  0  0  0  0  0  0
    7.5917    7.2278    9.9787 H   0  0  0  0  0  0  0  0  0  0  0  0
    9.5444    7.9575   11.2951 H   0  0  0  0  0  0  0  0  0  0  0  0
   11.8219    7.0312   10.8628 H   0  0  0  0  0  0  0  0  0  0  0  0
  1  3  2  0
  1  4  1  0
  1  5  1  0
  2  4  1  0
  2  6  1  0
  4  9  1  0
  4 15  1  0
  5  6  1  0
  5  8  1  0
  6  7  2  3
  9 10  2  0
  9 14  1  0
 10 11  1  0
 11 12  2  0
 12 13  1  0
 13 14  2  0
 15 16  2  0
 15 20  1  0
 16 17  1  0
 17 18  2  0
 18 19  1  0
 19 20  2  0
  2 21  1  0
  7 22  1  0
  8 23  1  0
  8 24  1  0
  8 25  1  0
 10 26  1  0
 11 27  1  0
 12 28  1  0
 13 29  1  0
 14 30  1  0
 16 31  1  0
 17 32  1  0
 19 33  1  0
 20 34  1  0
 35 36  2  0
 36 37  1  0
 37 38  2  0
 38 39  1  0
 39 40  2  0
 40 41  1  0
 41 42  2  0
 42 43  1  0
 43 44  2  0
 44 35  1  0
 44 39  1  0
 36 45  1  0
 37 46  1  0
 38 47  1  0
 40 48  1  0
 41 49  1  0
 42 50  1  0
 43 51  1  0
 18 35  1  0
M  END
>  <attachment_point>  (88) 
32

>  <score>  (88) 
<NA>

$$$$
4djw
     RDKit          3D

 46 49  0  0  0  0  0  0  0  0999 V2000
   22.4950   11.8750   22.5810 C   0  0  0  0  0  0  0  0  0  0  0  0
   22.5380    9.4930   22.4640 N   0  0  0  0  0  0  0  0  0  0  0  0
   22.3600   13.0630   22.3480 O   0  0  0  0  0  0  0  0  0  0  0  0
   22.3390   10.6680   21.5610 C   0  0  0  0  0  0  0  0  0  0  0  0
   22.7860   11.3350   23.8120 N   0  0  0  0  0  0  0  0  0  0  0  0
   22.7800    9.9140   23.7010 C   0  0  0  0  0  0  0  0  0  0  0  0
   22.9970    9.1110   24.7490 N   0  0  0  0  0  0  0  0  0  0  0  0
   23.0220   12.1410   25.0180 C   0  0  0  0  0  0  0  0  0  0  0  0
   20.9020   10.6270   21.0050 C   0  0  0  0  0  0  0  0  0  0  0  0
   20.2720    9.4140   20.7470 C   0  0  0  0  0  0  0  0  0  0  0  0
   18.9690    9.3760   20.2600 C   0  0  0  0  0  0  0  0  0  0  0  0
   18.2800   10.5440   20.0210 C   0  0  0  0  0  0  0  0  0  0  0  0
   18.8920   11.7530   20.2590 C   0  0  0  0  0  0  0  0  0  0  0  0
   20.1950   11.7970   20.7440 C   0  0  0  0  0  0  0  0  0  0  0  0
   23.4880   10.6920   20.5300 C   0  0  0  0  0  0  0  0  0  0  0  0
   23.2110   10.7890   19.1730 C   0  0  0  0  0  0  0  0  0  0  0  0
   24.2350   10.8650   18.2430 C   0  0  0  0  0  0  0  0  0  0  0  0
   25.5500   10.8410   18.6560 C   0  0  0  0  0  0  0  0  0  0  0  0
   25.8710   10.7460   20.0070 C   0  0  0  0  0  0  0  0  0  0  0  0
   24.8260   10.6610   20.9430 C   0  0  0  0  0  0  0  0  0  0  0  0
    0.0000    0.0000    0.0000 H   0  0  0  0  0  0  0  0  0  0  0  0
    0.0000    0.0000    0.0000 H   0  0  0  0  0  0  0  0  0  0  0  0
    0.0000    0.0000    0.0000 H   0  0  0  0  0  0  0  0  0  0  0  0
    0.0000    0.0000    0.0000 H   0  0  0  0  0  0  0  0  0  0  0  0
    0.0000    0.0000    0.0000 H   0  0  0  0  0  0  0  0  0  0  0  0
    0.0000    0.0000    0.0000 H   0  0  0  0  0  0  0  0  0  0  0  0
    0.0000    0.0000    0.0000 H   0  0  0  0  0  0  0  0  0  0  0  0
    0.0000    0.0000    0.0000 H   0  0  0  0  0  0  0  0  0  0  0  0
    0.0000    0.0000    0.0000 H   0  0  0  0  0  0  0  0  0  0  0  0
    0.0000    0.0000    0.0000 H   0  0  0  0  0  0  0  0  0  0  0  0
    0.0000    0.0000    0.0000 H   0  0  0  0  0  0  0  0  0  0  0  0
    0.0000    0.0000    0.0000 H   0  0  0  0  0  0  0  0  0  0  0  0
    0.0000    0.0000    0.0000 H   0  0  0  0  0  0  0  0  0  0  0  0
    0.0000    0.0000    0.0000 H   0  0  0  0  0  0  0  0  0  0  0  0
   12.4192    5.2695    9.0682 C   0  0  0  0  0  0  0  0  0  0  0  0
   12.0072    6.0749    8.0877 C   0  0  0  0  0  0  0  0  0  0  0  0
   10.9454    5.6365    7.3038 C   0  0  0  0  0  0  0  0  0  0  0  0
   10.3653    4.4113    7.5592 C   0  0  0  0  0  0  0  0  0  0  0  0
   10.7814    3.5793    8.5623 C   0  0  0  0  0  0  0  0  0  0  0  0
   10.1928    2.3002    8.8464 C   0  0  0  0  0  0  0  0  0  0  0  0
    9.7006    1.2664    9.0637 N   0  0  0  0  0  0  0  0  0  0  0  0
   11.8567    4.0563    9.3332 C   0  0  0  0  0  0  0  0  0  0  0  0
   12.4153    7.0509    7.8290 H   0  0  0  0  0  0  0  0  0  0  0  0
   10.5811    6.2646    6.4951 H   0  0  0  0  0  0  0  0  0  0  0  0
    9.5314    4.0582    6.9495 H   0  0  0  0  0  0  0  0  0  0  0  0
   12.2334    3.4418   10.1453 H   0  0  0  0  0  0  0  0  0  0  0  0
  1  3  2  0
  1  4  1  0
  1  5  1  0
  2  4  1  0
  2  6  1  0
  4  9  1  0
  4 15  1  0
  5  6  1  0
  5  8  1  0
  6  7  2  3
  9 10  2  0
  9 14  1  0
 10 11  1  0
 11 12  2  0
 12 13  1  0
 13 14  2  0
 15 16  2  0
 15 20  1  0
 16 17  1  0
 17 18  2  0
 18 19  1  0
 19 20  2  0
  2 21  1  0
  7 22  1  0
  8 23  1  0
  8 24  1  0
  8 25  1  0
 10 26  1  0
 11 27  1  0
 12 28  1  0
 13 29  1  0
 14 30  1  0
 16 31  1  0
 17 32  1  0
 19 33  1  0
 20 34  1  0
 35 36  2  0
 36 37  1  0
 37 38  2  0
 38 39  1  0
 39 40  1  0
 40 41  3  0
 39 42  2  0
 42 35  1  0
 36 43  1  0
 37 44  1  0
 38 45  1  0
 42 46  1  0
 18 35  1  0
M  END
>  <attachment_point>  (89) 
32

>  <score>  (89) 
<NA>

$$$$
4djw
     RDKit          3D

 45 47  0  0  0  0  0  0  0  0999 V2000
   22.4950   11.8750   22.5810 C   0  0  0  0  0  0  0  0  0  0  0  0
   22.5380    9.4930   22.4640 N   0  0  0  0  0  0  0  0  0  0  0  0
   22.3600   13.0630   22.3480 O   0  0  0  0  0  0  0  0  0  0  0  0
   22.3390   10.6680   21.5610 C   0  0  0  0  0  0  0  0  0  0  0  0
   22.7860   11.3350   23.8120 N   0  0  0  0  0  0  0  0  0  0  0  0
   22.7800    9.9140   23.7010 C   0  0  0  0  0  0  0  0  0  0  0  0
   22.9970    9.1110   24.7490 N   0  0  0  0  0  0  0  0  0  0  0  0
   23.0220   12.1410   25.0180 C   0  0  0  0  0  0  0  0  0  0  0  0
   20.9020   10.6270   21.0050 C   0  0  0  0  0  0  0  0  0  0  0  0
   20.2720    9.4140   20.7470 C   0  0  0  0  0  0  0  0  0  0  0  0
   18.9690    9.3760   20.2600 C   0  0  0  0  0  0  0  0  0  0  0  0
   18.2800   10.5440   20.0210 C   0  0  0  0  0  0  0  0  0  0  0  0
   18.8920   11.7530   20.2590 C   0  0  0  0  0  0  0  0  0  0  0  0
   20.1950   11.7970   20.7440 C   0  0  0  0  0  0  0  0  0  0  0  0
   23.4880   10.6920   20.5300 C   0  0  0  0  0  0  0  0  0  0  0  0
   23.2110   10.7890   19.1730 C   0  0  0  0  0  0  0  0  0  0  0  0
   24.2350   10.8650   18.2430 C   0  0  0  0  0  0  0  0  0  0  0  0
   25.5500   10.8410   18.6560 C   0  0  0  0  0  0  0  0  0  0  0  0
   25.8710   10.7460   20.0070 C   0  0  0  0  0  0  0  0  0  0  0  0
   24.8260   10.6610   20.9430 C   0  0  0  0  0  0  0  0  0  0  0  0
    0.0000    0.0000    0.0000 H   0  0  0  0  0  0  0  0  0  0  0  0
    0.0000    0.0000    0.0000 H   0  0  0  0  0  0  0  0  0  0  0  0
    0.0000    0.0000    0.0000 H   0  0  0  0  0  0  0  0  0  0  0  0
    0.0000    0.0000    0.0000 H   0  0  0  0  0  0  0  0  0  0  0  0
    0.0000    0.0000    0.0000 H   0  0  0  0  0  0  0  0  0  0  0  0
    0.0000    0.0000    0.0000 H   0  0  0  0  0  0  0  0  0  0  0  0
    0.0000    0.0000    0.0000 H   0  0  0  0  0  0  0  0  0  0  0  0
    0.0000    0.0000    0.0000 H   0  0  0  0  0  0  0  0  0  0  0  0
    0.0000    0.0000    0.0000 H   0  0  0  0  0  0  0  0  0  0  0  0
    0.0000    0.0000    0.0000 H   0  0  0  0  0  0  0  0  0  0  0  0
    0.0000    0.0000    0.0000 H   0  0  0  0  0  0  0  0  0  0  0  0
    0.0000    0.0000    0.0000 H   0  0  0  0  0  0  0  0  0  0  0  0
    0.0000    0.0000    0.0000 H   0  0  0  0  0  0  0  0  0  0  0  0
    0.0000    0.0000    0.0000 H   0  0  0  0  0  0  0  0  0  0  0  0
   12.4426    5.2795    9.0853 O   0  0  0  0  0  0  0  0  0  0  0  0
   11.6973    6.4475    8.8014 C   0  0  0  0  0  0  0  0  0  0  0  0
   10.5227    5.9965    7.9517 C   0  0  0  0  0  0  0  0  0  0  0  0
    9.6562    5.0079    8.6407 C   0  0  0  0  0  0  0  0  0  0  0  0
   12.2960    7.2045    8.2974 H   0  0  0  0  0  0  0  0  0  0  0  0
   11.3564    6.8221    9.7828 H   0  0  0  0  0  0  0  0  0  0  0  0
   10.8880    5.5655    6.9957 H   0  0  0  0  0  0  0  0  0  0  0  0
    9.9759    6.9303    7.6601 H   0  0  0  0  0  0  0  0  0  0  0  0
    9.6616    5.0851    9.7537 H   0  0  0  0  0  0  0  0  0  0  0  0
    9.9439    3.9503    8.4186 H   0  0  0  0  0  0  0  0  0  0  0  0
    8.5771    5.0758    8.3503 H   0  0  0  0  0  0  0  0  0  0  0  0
  1  3  2  0
  1  4  1  0
  1  5  1  0
  2  4  1  0
  2  6  1  0
  4  9  1  0
  4 15  1  0
  5  6  1  0
  5  8  1  0
  6  7  2  3
  9 10  2  0
  9 14  1  0
 10 11  1  0
 11 12  2  0
 12 13  1  0
 13 14  2  0
 15 16  2  0
 15 20  1  0
 16 17  1  0
 17 18  2  0
 18 19  1  0
 19 20  2  0
  2 21  1  0
  7 22  1  0
  8 23  1  0
  8 24  1  0
  8 25  1  0
 10 26  1  0
 11 27  1  0
 12 28  1  0
 13 29  1  0
 14 30  1  0
 16 31  1  0
 17 32  1  0
 19 33  1  0
 20 34  1  0
 35 36  1  0
 36 37  1  0
 37 38  1  0
 36 39  1  0
 36 40  1  0
 37 41  1  0
 37 42  1  0
 38 43  1  0
 38 44  1  0
 38 45  1  0
 18 35  1  0
M  END
>  <attachment_point>  (90) 
32

>  <score>  (90) 
<NA>

$$$$
4djw
     RDKit          3D

 49 52  0  0  0  0  0  0  0  0999 V2000
   22.4950   11.8750   22.5810 C   0  0  0  0  0  0  0  0  0  0  0  0
   22.5380    9.4930   22.4640 N   0  0  0  0  0  0  0  0  0  0  0  0
   22.3600   13.0630   22.3480 O   0  0  0  0  0  0  0  0  0  0  0  0
   22.3390   10.6680   21.5610 C   0  0  0  0  0  0  0  0  0  0  0  0
   22.7860   11.3350   23.8120 N   0  0  0  0  0  0  0  0  0  0  0  0
   22.7800    9.9140   23.7010 C   0  0  0  0  0  0  0  0  0  0  0  0
   22.9970    9.1110   24.7490 N   0  0  0  0  0  0  0  0  0  0  0  0
   23.0220   12.1410   25.0180 C   0  0  0  0  0  0  0  0  0  0  0  0
   20.9020   10.6270   21.0050 C   0  0  0  0  0  0  0  0  0  0  0  0
   20.2720    9.4140   20.7470 C   0  0  0  0  0  0  0  0  0  0  0  0
   18.9690    9.3760   20.2600 C   0  0  0  0  0  0  0  0  0  0  0  0
   18.2800   10.5440   20.0210 C   0  0  0  0  0  0  0  0  0  0  0  0
   18.8920   11.7530   20.2590 C   0  0  0  0  0  0  0  0  0  0  0  0
   20.1950   11.7970   20.7440 C   0  0  0  0  0  0  0  0  0  0  0  0
   23.4880   10.6920   20.5300 C   0  0  0  0  0  0  0  0  0  0  0  0
   23.2110   10.7890   19.1730 C   0  0  0  0  0  0  0  0  0  0  0  0
   24.2350   10.8650   18.2430 C   0  0  0  0  0  0  0  0  0  0  0  0
   25.5500   10.8410   18.6560 C   0  0  0  0  0  0  0  0  0  0  0  0
   25.8710   10.7460   20.0070 C   0  0  0  0  0  0  0  0  0  0  0  0
   24.8260   10.6610   20.9430 C   0  0  0  0  0  0  0  0  0  0  0  0
    0.0000    0.0000    0.0000 H   0  0  0  0  0  0  0  0  0  0  0  0
    0.0000    0.0000    0.0000 H   0  0  0  0  0  0  0  0  0  0  0  0
    0.0000    0.0000    0.0000 H   0  0  0  0  0  0  0  0  0  0  0  0
    0.0000    0.0000    0.0000 H   0  0  0  0  0  0  0  0  0  0  0  0
    0.0000    0.0000    0.0000 H   0  0  0  0  0  0  0  0  0  0  0  0
    0.0000    0.0000    0.0000 H   0  0  0  0  0  0  0  0  0  0  0  0
    0.0000    0.0000    0.0000 H   0  0  0  0  0  0  0  0  0  0  0  0
    0.0000    0.0000    0.0000 H   0  0  0  0  0  0  0  0  0  0  0  0
    0.0000    0.0000    0.0000 H   0  0  0  0  0  0  0  0  0  0  0  0
    0.0000    0.0000    0.0000 H   0  0  0  0  0  0  0  0  0  0  0  0
    0.0000    0.0000    0.0000 H   0  0  0  0  0  0  0  0  0  0  0  0
    0.0000    0.0000    0.0000 H   0  0  0  0  0  0  0  0  0  0  0  0
    0.0000    0.0000    0.0000 H   0  0  0  0  0  0  0  0  0  0  0  0
    0.0000    0.0000    0.0000 H   0  0  0  0  0  0  0  0  0  0  0  0
   12.4380    5.2775    9.0819 N   0  0  0  0  0  0  0  0  0  0  0  0
   12.4781    4.0406    8.4402 C   0  0  0  0  0  0  0  0  0  0  0  0
   13.5322    3.3454    8.5984 O   0  0  0  0  0  0  0  0  0  0  0  0
   11.3934    3.5200    7.6161 C   0  0  0  0  0  0  0  0  0  0  0  0
   11.5253    2.2836    7.0206 C   0  0  0  0  0  0  0  0  0  0  0  0
   10.5254    1.7493    6.2318 C   0  0  0  0  0  0  0  0  0  0  0  0
    9.3484    2.4548    6.0173 C   0  0  0  0  0  0  0  0  0  0  0  0
    9.2107    3.6879    6.6079 C   0  0  0  0  0  0  0  0  0  0  0  0
   10.2390    4.2075    7.4033 C   0  0  0  0  0  0  0  0  0  0  0  0
   11.5997    5.8795    8.9825 H   0  0  0  0  0  0  0  0  0  0  0  0
   12.4520    1.7223    7.1864 H   0  0  0  0  0  0  0  0  0  0  0  0
   10.6413    0.7653    5.7635 H   0  0  0  0  0  0  0  0  0  0  0  0
    8.5654    2.0258    5.3938 H   0  0  0  0  0  0  0  0  0  0  0  0
    8.3050    4.2584    6.4577 H   0  0  0  0  0  0  0  0  0  0  0  0
   10.0697    5.1764    7.8367 H   0  0  0  0  0  0  0  0  0  0  0  0
  1  3  2  0
  1  4  1  0
  1  5  1  0
  2  4  1  0
  2  6  1  0
  4  9  1  0
  4 15  1  0
  5  6  1  0
  5  8  1  0
  6  7  2  3
  9 10  2  0
  9 14  1  0
 10 11  1  0
 11 12  2  0
 12 13  1  0
 13 14  2  0
 15 16  2  0
 15 20  1  0
 16 17  1  0
 17 18  2  0
 18 19  1  0
 19 20  2  0
  2 21  1  0
  7 22  1  0
  8 23  1  0
  8 24  1  0
  8 25  1  0
 10 26  1  0
 11 27  1  0
 12 28  1  0
 13 29  1  0
 14 30  1  0
 16 31  1  0
 17 32  1  0
 19 33  1  0
 20 34  1  0
 35 36  1  0
 36 37  2  0
 36 38  1  0
 38 39  2  0
 39 40  1  0
 40 41  2  0
 41 42  1  0
 42 43  2  0
 43 38  1  0
 35 44  1  0
 39 45  1  0
 40 46  1  0
 41 47  1  0
 42 48  1  0
 43 49  1  0
 18 35  1  0
M  END
>  <attachment_point>  (91) 
32

>  <score>  (91) 
<NA>

$$$$
4djw
     RDKit          3D

 45 48  0  0  0  0  0  0  0  0999 V2000
   22.4950   11.8750   22.5810 C   0  0  0  0  0  0  0  0  0  0  0  0
   22.5380    9.4930   22.4640 N   0  0  0  0  0  0  0  0  0  0  0  0
   22.3600   13.0630   22.3480 O   0  0  0  0  0  0  0  0  0  0  0  0
   22.3390   10.6680   21.5610 C   0  0  0  0  0  0  0  0  0  0  0  0
   22.7860   11.3350   23.8120 N   0  0  0  0  0  0  0  0  0  0  0  0
   22.7800    9.9140   23.7010 C   0  0  0  0  0  0  0  0  0  0  0  0
   22.9970    9.1110   24.7490 N   0  0  0  0  0  0  0  0  0  0  0  0
   23.0220   12.1410   25.0180 C   0  0  0  0  0  0  0  0  0  0  0  0
   20.9020   10.6270   21.0050 C   0  0  0  0  0  0  0  0  0  0  0  0
   20.2720    9.4140   20.7470 C   0  0  0  0  0  0  0  0  0  0  0  0
   18.9690    9.3760   20.2600 C   0  0  0  0  0  0  0  0  0  0  0  0
   18.2800   10.5440   20.0210 C   0  0  0  0  0  0  0  0  0  0  0  0
   18.8920   11.7530   20.2590 C   0  0  0  0  0  0  0  0  0  0  0  0
   20.1950   11.7970   20.7440 C   0  0  0  0  0  0  0  0  0  0  0  0
   23.4880   10.6920   20.5300 C   0  0  0  0  0  0  0  0  0  0  0  0
   23.2110   10.7890   19.1730 C   0  0  0  0  0  0  0  0  0  0  0  0
   24.2350   10.8650   18.2430 C   0  0  0  0  0  0  0  0  0  0  0  0
   25.5500   10.8410   18.6560 C   0  0  0  0  0  0  0  0  0  0  0  0
   25.8710   10.7460   20.0070 C   0  0  0  0  0  0  0  0  0  0  0  0
   24.8260   10.6610   20.9430 C   0  0  0  0  0  0  0  0  0  0  0  0
    0.0000    0.0000    0.0000 H   0  0  0  0  0  0  0  0  0  0  0  0
    0.0000    0.0000    0.0000 H   0  0  0  0  0  0  0  0  0  0  0  0
    0.0000    0.0000    0.0000 H   0  0  0  0  0  0  0  0  0  0  0  0
    0.0000    0.0000    0.0000 H   0  0  0  0  0  0  0  0  0  0  0  0
    0.0000    0.0000    0.0000 H   0  0  0  0  0  0  0  0  0  0  0  0
    0.0000    0.0000    0.0000 H   0  0  0  0  0  0  0  0  0  0  0  0
    0.0000    0.0000    0.0000 H   0  0  0  0  0  0  0  0  0  0  0  0
    0.0000    0.0000    0.0000 H   0  0  0  0  0  0  0  0  0  0  0  0
    0.0000    0.0000    0.0000 H   0  0  0  0  0  0  0  0  0  0  0  0
    0.0000    0.0000    0.0000 H   0  0  0  0  0  0  0  0  0  0  0  0
    0.0000    0.0000    0.0000 H   0  0  0  0  0  0  0  0  0  0  0  0
    0.0000    0.0000    0.0000 H   0  0  0  0  0  0  0  0  0  0  0  0
    0.0000    0.0000    0.0000 H   0  0  0  0  0  0  0  0  0  0  0  0
    0.0000    0.0000    0.0000 H   0  0  0  0  0  0  0  0  0  0  0  0
   12.4022    5.2623    9.0558 C   0  0  0  0  0  0  0  0  0  0  0  0
   12.5070    4.5791    7.9069 C   0  0  0  0  0  0  0  0  0  0  0  0
   11.2246    4.3495    7.5006 N   0  0  0  0  0  0  0  0  0  0  0  0
   10.3514    4.8547    8.3376 N   0  0  0  0  0  0  0  0  0  0  0  0
    8.9006    4.8428    8.2950 C   0  0  0  0  0  0  0  0  0  0  0  0
   11.0965    5.4364    9.3287 C   0  0  0  0  0  0  0  0  0  0  0  0
   13.3740    4.2368    7.3441 H   0  0  0  0  0  0  0  0  0  0  0  0
    8.4967    5.3790    7.4164 H   0  0  0  0  0  0  0  0  0  0  0  0
    8.4973    5.1978    9.2459 H   0  0  0  0  0  0  0  0  0  0  0  0
    8.5892    3.7656    8.1594 H   0  0  0  0  0  0  0  0  0  0  0  0
   10.6840    5.9518   10.1901 H   0  0  0  0  0  0  0  0  0  0  0  0
  1  3  2  0
  1  4  1  0
  1  5  1  0
  2  4  1  0
  2  6  1  0
  4  9  1  0
  4 15  1  0
  5  6  1  0
  5  8  1  0
  6  7  2  3
  9 10  2  0
  9 14  1  0
 10 11  1  0
 11 12  2  0
 12 13  1  0
 13 14  2  0
 15 16  2  0
 15 20  1  0
 16 17  1  0
 17 18  2  0
 18 19  1  0
 19 20  2  0
  2 21  1  0
  7 22  1  0
  8 23  1  0
  8 24  1  0
  8 25  1  0
 10 26  1  0
 11 27  1  0
 12 28  1  0
 13 29  1  0
 14 30  1  0
 16 31  1  0
 17 32  1  0
 19 33  1  0
 20 34  1  0
 35 36  1  0
 36 37  2  0
 37 38  1  0
 38 39  1  0
 38 40  1  0
 40 35  2  0
 36 41  1  0
 39 42  1  0
 39 43  1  0
 39 44  1  0
 40 45  1  0
 18 35  1  0
M  END
>  <attachment_point>  (92) 
32

>  <score>  (92) 
<NA>

$$$$
4djw
     RDKit          3D

 52 55  0  0  0  0  0  0  0  0999 V2000
   22.4950   11.8750   22.5810 C   0  0  0  0  0  0  0  0  0  0  0  0
   22.5380    9.4930   22.4640 N   0  0  0  0  0  0  0  0  0  0  0  0
   22.3600   13.0630   22.3480 O   0  0  0  0  0  0  0  0  0  0  0  0
   22.3390   10.6680   21.5610 C   0  0  0  0  0  0  0  0  0  0  0  0
   22.7860   11.3350   23.8120 N   0  0  0  0  0  0  0  0  0  0  0  0
   22.7800    9.9140   23.7010 C   0  0  0  0  0  0  0  0  0  0  0  0
   22.9970    9.1110   24.7490 N   0  0  0  0  0  0  0  0  0  0  0  0
   23.0220   12.1410   25.0180 C   0  0  0  0  0  0  0  0  0  0  0  0
   20.9020   10.6270   21.0050 C   0  0  0  0  0  0  0  0  0  0  0  0
   20.2720    9.4140   20.7470 C   0  0  0  0  0  0  0  0  0  0  0  0
   18.9690    9.3760   20.2600 C   0  0  0  0  0  0  0  0  0  0  0  0
   18.2800   10.5440   20.0210 C   0  0  0  0  0  0  0  0  0  0  0  0
   18.8920   11.7530   20.2590 C   0  0  0  0  0  0  0  0  0  0  0  0
   20.1950   11.7970   20.7440 C   0  0  0  0  0  0  0  0  0  0  0  0
   23.4880   10.6920   20.5300 C   0  0  0  0  0  0  0  0  0  0  0  0
   23.2110   10.7890   19.1730 C   0  0  0  0  0  0  0  0  0  0  0  0
   24.2350   10.8650   18.2430 C   0  0  0  0  0  0  0  0  0  0  0  0
   25.5500   10.8410   18.6560 C   0  0  0  0  0  0  0  0  0  0  0  0
   25.8710   10.7460   20.0070 C   0  0  0  0  0  0  0  0  0  0  0  0
   24.8260   10.6610   20.9430 C   0  0  0  0  0  0  0  0  0  0  0  0
    0.0000    0.0000    0.0000 H   0  0  0  0  0  0  0  0  0  0  0  0
    0.0000    0.0000    0.0000 H   0  0  0  0  0  0  0  0  0  0  0  0
    0.0000    0.0000    0.0000 H   0  0  0  0  0  0  0  0  0  0  0  0
    0.0000    0.0000    0.0000 H   0  0  0  0  0  0  0  0  0  0  0  0
    0.0000    0.0000    0.0000 H   0  0  0  0  0  0  0  0  0  0  0  0
    0.0000    0.0000    0.0000 H   0  0  0  0  0  0  0  0  0  0  0  0
    0.0000    0.0000    0.0000 H   0  0  0  0  0  0  0  0  0  0  0  0
    0.0000    0.0000    0.0000 H   0  0  0  0  0  0  0  0  0  0  0  0
    0.0000    0.0000    0.0000 H   0  0  0  0  0  0  0  0  0  0  0  0
    0.0000    0.0000    0.0000 H   0  0  0  0  0  0  0  0  0  0  0  0
    0.0000    0.0000    0.0000 H   0  0  0  0  0  0  0  0  0  0  0  0
    0.0000    0.0000    0.0000 H   0  0  0  0  0  0  0  0  0  0  0  0
    0.0000    0.0000    0.0000 H   0  0  0  0  0  0  0  0  0  0  0  0
    0.0000    0.0000    0.0000 H   0  0  0  0  0  0  0  0  0  0  0  0
   12.4097    5.2655    9.0612 C   0  0  0  0  0  0  0  0  0  0  0  0
   12.6533    4.5796    8.0686 O   0  0  0  0  0  0  0  0  0  0  0  0
   11.1483    5.6552    9.5155 N   0  0  0  0  0  0  0  0  0  0  0  0
    9.9483    5.2766    8.8433 C   0  0  0  0  0  0  0  0  0  0  0  0
    9.5531    3.8615    9.0855 C   0  0  0  0  0  0  0  0  0  0  0  0
    8.7843    3.6392   10.2335 C   0  0  0  0  0  0  0  0  0  0  0  0
    8.3765    2.3535   10.5187 C   0  0  0  0  0  0  0  0  0  0  0  0
    8.7349    1.3290    9.6706 C   0  0  0  0  0  0  0  0  0  0  0  0
    9.4939    1.5544    8.5385 C   0  0  0  0  0  0  0  0  0  0  0  0
    9.9011    2.8440    8.2551 C   0  0  0  0  0  0  0  0  0  0  0  0
   11.0851    6.2397   10.3692 H   0  0  0  0  0  0  0  0  0  0  0  0
    9.0680    5.9006    9.0986 H   0  0  0  0  0  0  0  0  0  0  0  0
   10.1269    5.3515    7.7339 H   0  0  0  0  0  0  0  0  0  0  0  0
    8.5050    4.4452   10.8976 H   0  0  0  0  0  0  0  0  0  0  0  0
    7.7826    2.1493   11.3998 H   0  0  0  0  0  0  0  0  0  0  0  0
    8.4111    0.3201    9.9015 H   0  0  0  0  0  0  0  0  0  0  0  0
    9.7918    0.7657    7.8510 H   0  0  0  0  0  0  0  0  0  0  0  0
   10.4926    3.0717    7.3808 H   0  0  0  0  0  0  0  0  0  0  0  0
  1  3  2  0
  1  4  1  0
  1  5  1  0
  2  4  1  0
  2  6  1  0
  4  9  1  0
  4 15  1  0
  5  6  1  0
  5  8  1  0
  6  7  2  3
  9 10  2  0
  9 14  1  0
 10 11  1  0
 11 12  2  0
 12 13  1  0
 13 14  2  0
 15 16  2  0
 15 20  1  0
 16 17  1  0
 17 18  2  0
 18 19  1  0
 19 20  2  0
  2 21  1  0
  7 22  1  0
  8 23  1  0
  8 24  1  0
  8 25  1  0
 10 26  1  0
 11 27  1  0
 12 28  1  0
 13 29  1  0
 14 30  1  0
 16 31  1  0
 17 32  1  0
 19 33  1  0
 20 34  1  0
 35 36  2  0
 35 37  1  0
 37 38  1  0
 38 39  1  0
 39 40  2  0
 40 41  1  0
 41 42  2  0
 42 43  1  0
 43 44  2  0
 44 39  1  0
 37 45  1  0
 38 46  1  0
 38 47  1  0
 40 48  1  0
 41 49  1  0
 42 50  1  0
 43 51  1  0
 44 52  1  0
 18 35  1  0
M  END
>  <attachment_point>  (93) 
32

>  <score>  (93) 
<NA>

$$$$
4djw
     RDKit          3D

 42 45  0  0  0  0  0  0  0  0999 V2000
   22.4950   11.8750   22.5810 C   0  0  0  0  0  0  0  0  0  0  0  0
   22.5380    9.4930   22.4640 N   0  0  0  0  0  0  0  0  0  0  0  0
   22.3600   13.0630   22.3480 O   0  0  0  0  0  0  0  0  0  0  0  0
   22.3390   10.6680   21.5610 C   0  0  0  0  0  0  0  0  0  0  0  0
   22.7860   11.3350   23.8120 N   0  0  0  0  0  0  0  0  0  0  0  0
   22.7800    9.9140   23.7010 C   0  0  0  0  0  0  0  0  0  0  0  0
   22.9970    9.1110   24.7490 N   0  0  0  0  0  0  0  0  0  0  0  0
   23.0220   12.1410   25.0180 C   0  0  0  0  0  0  0  0  0  0  0  0
   20.9020   10.6270   21.0050 C   0  0  0  0  0  0  0  0  0  0  0  0
   20.2720    9.4140   20.7470 C   0  0  0  0  0  0  0  0  0  0  0  0
   18.9690    9.3760   20.2600 C   0  0  0  0  0  0  0  0  0  0  0  0
   18.2800   10.5440   20.0210 C   0  0  0  0  0  0  0  0  0  0  0  0
   18.8920   11.7530   20.2590 C   0  0  0  0  0  0  0  0  0  0  0  0
   20.1950   11.7970   20.7440 C   0  0  0  0  0  0  0  0  0  0  0  0
   23.4880   10.6920   20.5300 C   0  0  0  0  0  0  0  0  0  0  0  0
   23.2110   10.7890   19.1730 C   0  0  0  0  0  0  0  0  0  0  0  0
   24.2350   10.8650   18.2430 C   0  0  0  0  0  0  0  0  0  0  0  0
   25.5500   10.8410   18.6560 C   0  0  0  0  0  0  0  0  0  0  0  0
   25.8710   10.7460   20.0070 C   0  0  0  0  0  0  0  0  0  0  0  0
   24.8260   10.6610   20.9430 C   0  0  0  0  0  0  0  0  0  0  0  0
    0.0000    0.0000    0.0000 H   0  0  0  0  0  0  0  0  0  0  0  0
    0.0000    0.0000    0.0000 H   0  0  0  0  0  0  0  0  0  0  0  0
    0.0000    0.0000    0.0000 H   0  0  0  0  0  0  0  0  0  0  0  0
    0.0000    0.0000    0.0000 H   0  0  0  0  0  0  0  0  0  0  0  0
    0.0000    0.0000    0.0000 H   0  0  0  0  0  0  0  0  0  0  0  0
    0.0000    0.0000    0.0000 H   0  0  0  0  0  0  0  0  0  0  0  0
    0.0000    0.0000    0.0000 H   0  0  0  0  0  0  0  0  0  0  0  0
    0.0000    0.0000    0.0000 H   0  0  0  0  0  0  0  0  0  0  0  0
    0.0000    0.0000    0.0000 H   0  0  0  0  0  0  0  0  0  0  0  0
    0.0000    0.0000    0.0000 H   0  0  0  0  0  0  0  0  0  0  0  0
    0.0000    0.0000    0.0000 H   0  0  0  0  0  0  0  0  0  0  0  0
    0.0000    0.0000    0.0000 H   0  0  0  0  0  0  0  0  0  0  0  0
    0.0000    0.0000    0.0000 H   0  0  0  0  0  0  0  0  0  0  0  0
    0.0000    0.0000    0.0000 H   0  0  0  0  0  0  0  0  0  0  0  0
   12.4193    5.2696    9.0683 N   0  0  0  0  0  0  0  0  0  0  0  0
   12.2645    5.7218    7.8440 C   0  0  0  0  0  0  0  0  0  0  0  0
   11.1123    5.0586    7.3765 C   0  0  0  0  0  0  0  0  0  0  0  0
   10.6589    4.2574    8.3519 N   0  0  0  0  0  0  0  0  0  0  0  0
   11.4965    4.4129    9.3925 C   0  0  0  0  0  0  0  0  0  0  0  0
   12.8817    6.4372    7.3213 H   0  0  0  0  0  0  0  0  0  0  0  0
   10.7145    5.2154    6.3875 H   0  0  0  0  0  0  0  0  0  0  0  0
   11.4016    3.8995   10.3387 H   0  0  0  0  0  0  0  0  0  0  0  0
  1  3  2  0
  1  4  1  0
  1  5  1  0
  2  4  1  0
  2  6  1  0
  4  9  1  0
  4 15  1  0
  5  6  1  0
  5  8  1  0
  6  7  2  3
  9 10  2  0
  9 14  1  0
 10 11  1  0
 11 12  2  0
 12 13  1  0
 13 14  2  0
 15 16  2  0
 15 20  1  0
 16 17  1  0
 17 18  2  0
 18 19  1  0
 19 20  2  0
  2 21  1  0
  7 22  1  0
  8 23  1  0
  8 24  1  0
  8 25  1  0
 10 26  1  0
 11 27  1  0
 12 28  1  0
 13 29  1  0
 14 30  1  0
 16 31  1  0
 17 32  1  0
 19 33  1  0
 20 34  1  0
 35 36  1  0
 36 37  2  0
 37 38  1  0
 38 39  2  0
 39 35  1  0
 36 40  1  0
 37 41  1  0
 39 42  1  0
 18 35  1  0
M  END
>  <attachment_point>  (94) 
32

>  <score>  (94) 
<NA>

$$$$
4djw
     RDKit          3D

 46 48  0  0  0  0  0  0  0  0999 V2000
   22.4950   11.8750   22.5810 C   0  0  0  0  0  0  0  0  0  0  0  0
   22.5380    9.4930   22.4640 N   0  0  0  0  0  0  0  0  0  0  0  0
   22.3600   13.0630   22.3480 O   0  0  0  0  0  0  0  0  0  0  0  0
   22.3390   10.6680   21.5610 C   0  0  0  0  0  0  0  0  0  0  0  0
   22.7860   11.3350   23.8120 N   0  0  0  0  0  0  0  0  0  0  0  0
   22.7800    9.9140   23.7010 C   0  0  0  0  0  0  0  0  0  0  0  0
   22.9970    9.1110   24.7490 N   0  0  0  0  0  0  0  0  0  0  0  0
   23.0220   12.1410   25.0180 C   0  0  0  0  0  0  0  0  0  0  0  0
   20.9020   10.6270   21.0050 C   0  0  0  0  0  0  0  0  0  0  0  0
   20.2720    9.4140   20.7470 C   0  0  0  0  0  0  0  0  0  0  0  0
   18.9690    9.3760   20.2600 C   0  0  0  0  0  0  0  0  0  0  0  0
   18.2800   10.5440   20.0210 C   0  0  0  0  0  0  0  0  0  0  0  0
   18.8920   11.7530   20.2590 C   0  0  0  0  0  0  0  0  0  0  0  0
   20.1950   11.7970   20.7440 C   0  0  0  0  0  0  0  0  0  0  0  0
   23.4880   10.6920   20.5300 C   0  0  0  0  0  0  0  0  0  0  0  0
   23.2110   10.7890   19.1730 C   0  0  0  0  0  0  0  0  0  0  0  0
   24.2350   10.8650   18.2430 C   0  0  0  0  0  0  0  0  0  0  0  0
   25.5500   10.8410   18.6560 C   0  0  0  0  0  0  0  0  0  0  0  0
   25.8710   10.7460   20.0070 C   0  0  0  0  0  0  0  0  0  0  0  0
   24.8260   10.6610   20.9430 C   0  0  0  0  0  0  0  0  0  0  0  0
    0.0000    0.0000    0.0000 H   0  0  0  0  0  0  0  0  0  0  0  0
    0.0000    0.0000    0.0000 H   0  0  0  0  0  0  0  0  0  0  0  0
    0.0000    0.0000    0.0000 H   0  0  0  0  0  0  0  0  0  0  0  0
    0.0000    0.0000    0.0000 H   0  0  0  0  0  0  0  0  0  0  0  0
    0.0000    0.0000    0.0000 H   0  0  0  0  0  0  0  0  0  0  0  0
    0.0000    0.0000    0.0000 H   0  0  0  0  0  0  0  0  0  0  0  0
    0.0000    0.0000    0.0000 H   0  0  0  0  0  0  0  0  0  0  0  0
    0.0000    0.0000    0.0000 H   0  0  0  0  0  0  0  0  0  0  0  0
    0.0000    0.0000    0.0000 H   0  0  0  0  0  0  0  0  0  0  0  0
    0.0000    0.0000    0.0000 H   0  0  0  0  0  0  0  0  0  0  0  0
    0.0000    0.0000    0.0000 H   0  0  0  0  0  0  0  0  0  0  0  0
    0.0000    0.0000    0.0000 H   0  0  0  0  0  0  0  0  0  0  0  0
    0.0000    0.0000    0.0000 H   0  0  0  0  0  0  0  0  0  0  0  0
    0.0000    0.0000    0.0000 H   0  0  0  0  0  0  0  0  0  0  0  0
   12.4564    5.2853    9.0954 N   0  0  0  0  0  0  0  0  0  0  0  0
   12.3700    3.8423    9.1709 C   0  0  0  0  0  0  0  0  0  0  0  0
   12.1531    3.4660   10.6102 C   0  0  0  0  0  0  0  0  0  0  0  0
   13.6097    3.1524    8.6813 C   0  0  0  0  0  0  0  0  0  0  0  0
   12.5757    5.6277    8.1175 H   0  0  0  0  0  0  0  0  0  0  0  0
   11.4671    3.5482    8.5970 H   0  0  0  0  0  0  0  0  0  0  0  0
   13.1383    3.2717   11.1084 H   0  0  0  0  0  0  0  0  0  0  0  0
   11.6859    4.2877   11.1881 H   0  0  0  0  0  0  0  0  0  0  0  0
   11.5926    2.5217   10.6451 H   0  0  0  0  0  0  0  0  0  0  0  0
   14.3270    2.9650    9.5198 H   0  0  0  0  0  0  0  0  0  0  0  0
   14.1479    3.6925    7.8952 H   0  0  0  0  0  0  0  0  0  0  0  0
   13.2903    2.1243    8.3440 H   0  0  0  0  0  0  0  0  0  0  0  0
  1  3  2  0
  1  4  1  0
  1  5  1  0
  2  4  1  0
  2  6  1  0
  4  9  1  0
  4 15  1  0
  5  6  1  0
  5  8  1  0
  6  7  2  3
  9 10  2  0
  9 14  1  0
 10 11  1  0
 11 12  2  0
 12 13  1  0
 13 14  2  0
 15 16  2  0
 15 20  1  0
 16 17  1  0
 17 18  2  0
 18 19  1  0
 19 20  2  0
  2 21  1  0
  7 22  1  0
  8 23  1  0
  8 24  1  0
  8 25  1  0
 10 26  1  0
 11 27  1  0
 12 28  1  0
 13 29  1  0
 14 30  1  0
 16 31  1  0
 17 32  1  0
 19 33  1  0
 20 34  1  0
 35 36  1  0
 36 37  1  0
 36 38  1  0
 35 39  1  0
 36 40  1  0
 37 41  1  0
 37 42  1  0
 37 43  1  0
 38 44  1  0
 38 45  1  0
 38 46  1  0
 18 35  1  0
M  END
>  <attachment_point>  (95) 
32

>  <score>  (95) 
<NA>

$$$$
4djw
     RDKit          3D

 48 52  0  0  0  0  0  0  0  0999 V2000
   22.4950   11.8750   22.5810 C   0  0  0  0  0  0  0  0  0  0  0  0
   22.5380    9.4930   22.4640 N   0  0  0  0  0  0  0  0  0  0  0  0
   22.3600   13.0630   22.3480 O   0  0  0  0  0  0  0  0  0  0  0  0
   22.3390   10.6680   21.5610 C   0  0  0  0  0  0  0  0  0  0  0  0
   22.7860   11.3350   23.8120 N   0  0  0  0  0  0  0  0  0  0  0  0
   22.7800    9.9140   23.7010 C   0  0  0  0  0  0  0  0  0  0  0  0
   22.9970    9.1110   24.7490 N   0  0  0  0  0  0  0  0  0  0  0  0
   23.0220   12.1410   25.0180 C   0  0  0  0  0  0  0  0  0  0  0  0
   20.9020   10.6270   21.0050 C   0  0  0  0  0  0  0  0  0  0  0  0
   20.2720    9.4140   20.7470 C   0  0  0  0  0  0  0  0  0  0  0  0
   18.9690    9.3760   20.2600 C   0  0  0  0  0  0  0  0  0  0  0  0
   18.2800   10.5440   20.0210 C   0  0  0  0  0  0  0  0  0  0  0  0
   18.8920   11.7530   20.2590 C   0  0  0  0  0  0  0  0  0  0  0  0
   20.1950   11.7970   20.7440 C   0  0  0  0  0  0  0  0  0  0  0  0
   23.4880   10.6920   20.5300 C   0  0  0  0  0  0  0  0  0  0  0  0
   23.2110   10.7890   19.1730 C   0  0  0  0  0  0  0  0  0  0  0  0
   24.2350   10.8650   18.2430 C   0  0  0  0  0  0  0  0  0  0  0  0
   25.5500   10.8410   18.6560 C   0  0  0  0  0  0  0  0  0  0  0  0
   25.8710   10.7460   20.0070 C   0  0  0  0  0  0  0  0  0  0  0  0
   24.8260   10.6610   20.9430 C   0  0  0  0  0  0  0  0  0  0  0  0
    0.0000    0.0000    0.0000 H   0  0  0  0  0  0  0  0  0  0  0  0
    0.0000    0.0000    0.0000 H   0  0  0  0  0  0  0  0  0  0  0  0
    0.0000    0.0000    0.0000 H   0  0  0  0  0  0  0  0  0  0  0  0
    0.0000    0.0000    0.0000 H   0  0  0  0  0  0  0  0  0  0  0  0
    0.0000    0.0000    0.0000 H   0  0  0  0  0  0  0  0  0  0  0  0
    0.0000    0.0000    0.0000 H   0  0  0  0  0  0  0  0  0  0  0  0
    0.0000    0.0000    0.0000 H   0  0  0  0  0  0  0  0  0  0  0  0
    0.0000    0.0000    0.0000 H   0  0  0  0  0  0  0  0  0  0  0  0
    0.0000    0.0000    0.0000 H   0  0  0  0  0  0  0  0  0  0  0  0
    0.0000    0.0000    0.0000 H   0  0  0  0  0  0  0  0  0  0  0  0
    0.0000    0.0000    0.0000 H   0  0  0  0  0  0  0  0  0  0  0  0
    0.0000    0.0000    0.0000 H   0  0  0  0  0  0  0  0  0  0  0  0
    0.0000    0.0000    0.0000 H   0  0  0  0  0  0  0  0  0  0  0  0
    0.0000    0.0000    0.0000 H   0  0  0  0  0  0  0  0  0  0  0  0
   12.4285    5.2735    9.0750 C   0  0  0  0  0  0  0  0  0  0  0  0
   11.1752    5.1180    9.5883 C   0  0  0  0  0  0  0  0  0  0  0  0
   10.1669    4.6609    8.7414 C   0  0  0  0  0  0  0  0  0  0  0  0
   10.3784    4.3623    7.4218 C   0  0  0  0  0  0  0  0  0  0  0  0
   11.6463    4.5237    6.9177 C   0  0  0  0  0  0  0  0  0  0  0  0
   12.6704    4.9819    7.7554 C   0  0  0  0  0  0  0  0  0  0  0  0
   11.5988    4.1612    5.5837 O   0  0  0  0  0  0  0  0  0  0  0  0
   10.3072    3.6278    5.2780 C   0  0  0  0  0  0  0  0  0  0  0  0
    9.5268    3.9027    6.4270 O   0  0  0  0  0  0  0  0  0  0  0  0
   11.0085    5.3508   10.6189 H   0  0  0  0  0  0  0  0  0  0  0  0
    9.1866    4.5383    9.1393 H   0  0  0  0  0  0  0  0  0  0  0  0
   13.6540    5.1021    7.3455 H   0  0  0  0  0  0  0  0  0  0  0  0
   10.4384    2.5349    5.1055 H   0  0  0  0  0  0  0  0  0  0  0  0
    9.8699    4.1045    4.3768 H   0  0  0  0  0  0  0  0  0  0  0  0
  1  3  2  0
  1  4  1  0
  1  5  1  0
  2  4  1  0
  2  6  1  0
  4  9  1  0
  4 15  1  0
  5  6  1  0
  5  8  1  0
  6  7  2  3
  9 10  2  0
  9 14  1  0
 10 11  1  0
 11 12  2  0
 12 13  1  0
 13 14  2  0
 15 16  2  0
 15 20  1  0
 16 17  1  0
 17 18  2  0
 18 19  1  0
 19 20  2  0
  2 21  1  0
  7 22  1  0
  8 23  1  0
  8 24  1  0
  8 25  1  0
 10 26  1  0
 11 27  1  0
 12 28  1  0
 13 29  1  0
 14 30  1  0
 16 31  1  0
 17 32  1  0
 19 33  1  0
 20 34  1  0
 35 36  2  0
 36 37  1  0
 37 38  2  0
 38 39  1  0
 39 40  2  0
 39 41  1  0
 41 42  1  0
 42 43  1  0
 40 35  1  0
 43 38  1  0
 36 44  1  0
 37 45  1  0
 40 46  1  0
 42 47  1  0
 42 48  1  0
 18 35  1  0
M  END
>  <attachment_point>  (96) 
32

>  <score>  (96) 
<NA>

$$$$
4djw
     RDKit          3D

 50 53  0  0  0  0  0  0  0  0999 V2000
   22.4950   11.8750   22.5810 C   0  0  0  0  0  0  0  0  0  0  0  0
   22.5380    9.4930   22.4640 N   0  0  0  0  0  0  0  0  0  0  0  0
   22.3600   13.0630   22.3480 O   0  0  0  0  0  0  0  0  0  0  0  0
   22.3390   10.6680   21.5610 C   0  0  0  0  0  0  0  0  0  0  0  0
   22.7860   11.3350   23.8120 N   0  0  0  0  0  0  0  0  0  0  0  0
   22.7800    9.9140   23.7010 C   0  0  0  0  0  0  0  0  0  0  0  0
   22.9970    9.1110   24.7490 N   0  0  0  0  0  0  0  0  0  0  0  0
   23.0220   12.1410   25.0180 C   0  0  0  0  0  0  0  0  0  0  0  0
   20.9020   10.6270   21.0050 C   0  0  0  0  0  0  0  0  0  0  0  0
   20.2720    9.4140   20.7470 C   0  0  0  0  0  0  0  0  0  0  0  0
   18.9690    9.3760   20.2600 C   0  0  0  0  0  0  0  0  0  0  0  0
   18.2800   10.5440   20.0210 C   0  0  0  0  0  0  0  0  0  0  0  0
   18.8920   11.7530   20.2590 C   0  0  0  0  0  0  0  0  0  0  0  0
   20.1950   11.7970   20.7440 C   0  0  0  0  0  0  0  0  0  0  0  0
   23.4880   10.6920   20.5300 C   0  0  0  0  0  0  0  0  0  0  0  0
   23.2110   10.7890   19.1730 C   0  0  0  0  0  0  0  0  0  0  0  0
   24.2350   10.8650   18.2430 C   0  0  0  0  0  0  0  0  0  0  0  0
   25.5500   10.8410   18.6560 C   0  0  0  0  0  0  0  0  0  0  0  0
   25.8710   10.7460   20.0070 C   0  0  0  0  0  0  0  0  0  0  0  0
   24.8260   10.6610   20.9430 C   0  0  0  0  0  0  0  0  0  0  0  0
    0.0000    0.0000    0.0000 H   0  0  0  0  0  0  0  0  0  0  0  0
    0.0000    0.0000    0.0000 H   0  0  0  0  0  0  0  0  0  0  0  0
    0.0000    0.0000    0.0000 H   0  0  0  0  0  0  0  0  0  0  0  0
    0.0000    0.0000    0.0000 H   0  0  0  0  0  0  0  0  0  0  0  0
    0.0000    0.0000    0.0000 H   0  0  0  0  0  0  0  0  0  0  0  0
    0.0000    0.0000    0.0000 H   0  0  0  0  0  0  0  0  0  0  0  0
    0.0000    0.0000    0.0000 H   0  0  0  0  0  0  0  0  0  0  0  0
    0.0000    0.0000    0.0000 H   0  0  0  0  0  0  0  0  0  0  0  0
    0.0000    0.0000    0.0000 H   0  0  0  0  0  0  0  0  0  0  0  0
    0.0000    0.0000    0.0000 H   0  0  0  0  0  0  0  0  0  0  0  0
    0.0000    0.0000    0.0000 H   0  0  0  0  0  0  0  0  0  0  0  0
    0.0000    0.0000    0.0000 H   0  0  0  0  0  0  0  0  0  0  0  0
    0.0000    0.0000    0.0000 H   0  0  0  0  0  0  0  0  0  0  0  0
    0.0000    0.0000    0.0000 H   0  0  0  0  0  0  0  0  0  0  0  0
   12.4475    5.2815    9.0889 C   0  0  0  0  0  0  0  0  0  0  0  0
   12.3434    3.8646    9.3575 N   0  0  0  0  0  0  0  0  0  0  0  0
   13.6038    3.2634    8.9674 C   0  0  0  0  0  0  0  0  0  0  0  0
   14.5533    3.8281    9.9971 C   0  0  0  0  0  0  0  0  0  0  0  0
   13.7449    3.7841   11.2655 C   0  0  0  0  0  0  0  0  0  0  0  0
   12.3202    3.6075   10.7863 C   0  0  0  0  0  0  0  0  0  0  0  0
   11.5059    5.8029    9.3102 H   0  0  0  0  0  0  0  0  0  0  0  0
   12.6876    5.4859    8.0251 H   0  0  0  0  0  0  0  0  0  0  0  0
   13.5028    2.1746    9.0284 H   0  0  0  0  0  0  0  0  0  0  0  0
   13.9071    3.5555    7.9533 H   0  0  0  0  0  0  0  0  0  0  0  0
   14.8812    4.8354    9.7160 H   0  0  0  0  0  0  0  0  0  0  0  0
   15.4366    3.1605   10.0212 H   0  0  0  0  0  0  0  0  0  0  0  0
   14.1051    2.9141   11.8545 H   0  0  0  0  0  0  0  0  0  0  0  0
   13.7891    4.6877   11.8656 H   0  0  0  0  0  0  0  0  0  0  0  0
   11.6323    4.3470   11.2418 H   0  0  0  0  0  0  0  0  0  0  0  0
   12.0253    2.5812   11.0098 H   0  0  0  0  0  0  0  0  0  0  0  0
  1  3  2  0
  1  4  1  0
  1  5  1  0
  2  4  1  0
  2  6  1  0
  4  9  1  0
  4 15  1  0
  5  6  1  0
  5  8  1  0
  6  7  2  3
  9 10  2  0
  9 14  1  0
 10 11  1  0
 11 12  2  0
 12 13  1  0
 13 14  2  0
 15 16  2  0
 15 20  1  0
 16 17  1  0
 17 18  2  0
 18 19  1  0
 19 20  2  0
  2 21  1  0
  7 22  1  0
  8 23  1  0
  8 24  1  0
  8 25  1  0
 10 26  1  0
 11 27  1  0
 12 28  1  0
 13 29  1  0
 14 30  1  0
 16 31  1  0
 17 32  1  0
 19 33  1  0
 20 34  1  0
 35 36  1  0
 36 37  1  0
 37 38  1  0
 38 39  1  0
 39 40  1  0
 40 36  1  0
 35 41  1  0
 35 42  1  0
 37 43  1  0
 37 44  1  0
 38 45  1  0
 38 46  1  0
 39 47  1  0
 39 48  1  0
 40 49  1  0
 40 50  1  0
 18 35  1  0
M  END
>  <attachment_point>  (97) 
32

>  <score>  (97) 
<NA>

$$$$
4djw
     RDKit          3D

 54 57  0  0  0  0  0  0  0  0999 V2000
   22.4950   11.8750   22.5810 C   0  0  0  0  0  0  0  0  0  0  0  0
   22.5380    9.4930   22.4640 N   0  0  0  0  0  0  0  0  0  0  0  0
   22.3600   13.0630   22.3480 O   0  0  0  0  0  0  0  0  0  0  0  0
   22.3390   10.6680   21.5610 C   0  0  0  0  0  0  0  0  0  0  0  0
   22.7860   11.3350   23.8120 N   0  0  0  0  0  0  0  0  0  0  0  0
   22.7800    9.9140   23.7010 C   0  0  0  0  0  0  0  0  0  0  0  0
   22.9970    9.1110   24.7490 N   0  0  0  0  0  0  0  0  0  0  0  0
   23.0220   12.1410   25.0180 C   0  0  0  0  0  0  0  0  0  0  0  0
   20.9020   10.6270   21.0050 C   0  0  0  0  0  0  0  0  0  0  0  0
   20.2720    9.4140   20.7470 C   0  0  0  0  0  0  0  0  0  0  0  0
   18.9690    9.3760   20.2600 C   0  0  0  0  0  0  0  0  0  0  0  0
   18.2800   10.5440   20.0210 C   0  0  0  0  0  0  0  0  0  0  0  0
   18.8920   11.7530   20.2590 C   0  0  0  0  0  0  0  0  0  0  0  0
   20.1950   11.7970   20.7440 C   0  0  0  0  0  0  0  0  0  0  0  0
   23.4880   10.6920   20.5300 C   0  0  0  0  0  0  0  0  0  0  0  0
   23.2110   10.7890   19.1730 C   0  0  0  0  0  0  0  0  0  0  0  0
   24.2350   10.8650   18.2430 C   0  0  0  0  0  0  0  0  0  0  0  0
   25.5500   10.8410   18.6560 C   0  0  0  0  0  0  0  0  0  0  0  0
   25.8710   10.7460   20.0070 C   0  0  0  0  0  0  0  0  0  0  0  0
   24.8260   10.6610   20.9430 C   0  0  0  0  0  0  0  0  0  0  0  0
    0.0000    0.0000    0.0000 H   0  0  0  0  0  0  0  0  0  0  0  0
    0.0000    0.0000    0.0000 H   0  0  0  0  0  0  0  0  0  0  0  0
    0.0000    0.0000    0.0000 H   0  0  0  0  0  0  0  0  0  0  0  0
    0.0000    0.0000    0.0000 H   0  0  0  0  0  0  0  0  0  0  0  0
    0.0000    0.0000    0.0000 H   0  0  0  0  0  0  0  0  0  0  0  0
    0.0000    0.0000    0.0000 H   0  0  0  0  0  0  0  0  0  0  0  0
    0.0000    0.0000    0.0000 H   0  0  0  0  0  0  0  0  0  0  0  0
    0.0000    0.0000    0.0000 H   0  0  0  0  0  0  0  0  0  0  0  0
    0.0000    0.0000    0.0000 H   0  0  0  0  0  0  0  0  0  0  0  0
    0.0000    0.0000    0.0000 H   0  0  0  0  0  0  0  0  0  0  0  0
    0.0000    0.0000    0.0000 H   0  0  0  0  0  0  0  0  0  0  0  0
    0.0000    0.0000    0.0000 H   0  0  0  0  0  0  0  0  0  0  0  0
    0.0000    0.0000    0.0000 H   0  0  0  0  0  0  0  0  0  0  0  0
    0.0000    0.0000    0.0000 H   0  0  0  0  0  0  0  0  0  0  0  0
   12.4609    5.2872    9.0986 C   0  0  0  0  0  0  0  0  0  0  0  0
   11.1611    5.3410    9.8685 C   0  0  0  0  0  0  0  0  0  0  0  0
   11.2788    4.4735   11.0789 C   0  0  0  0  0  0  0  0  0  0  0  0
    9.9837    4.2820   11.7973 C   0  0  0  0  0  0  0  0  0  0  0  0
    8.8135    4.9477   11.1650 C   0  0  0  0  0  0  0  0  0  0  0  0
    8.7299    4.8179    9.6863 C   0  0  0  0  0  0  0  0  0  0  0  0
   10.0421    4.8913    8.9744 C   0  0  0  0  0  0  0  0  0  0  0  0
   12.2951    5.7639    8.1309 H   0  0  0  0  0  0  0  0  0  0  0  0
   12.6580    4.1918    8.9137 H   0  0  0  0  0  0  0  0  0  0  0  0
   10.9300    6.3755   10.1968 H   0  0  0  0  0  0  0  0  0  0  0  0
   11.6898    3.4666   10.7702 H   0  0  0  0  0  0  0  0  0  0  0  0
   12.0786    4.9077   11.7269 H   0  0  0  0  0  0  0  0  0  0  0  0
    9.8213    3.1942   12.0036 H   0  0  0  0  0  0  0  0  0  0  0  0
   10.1111    4.7407   12.8226 H   0  0  0  0  0  0  0  0  0  0  0  0
    7.8856    4.4662   11.5939 H   0  0  0  0  0  0  0  0  0  0  0  0
    8.7612    6.0075   11.5212 H   0  0  0  0  0  0  0  0  0  0  0  0
    8.0962    5.6734    9.3092 H   0  0  0  0  0  0  0  0  0  0  0  0
    8.1911    3.9052    9.3755 H   0  0  0  0  0  0  0  0  0  0  0  0
   10.3215    3.9187    8.5156 H   0  0  0  0  0  0  0  0  0  0  0  0
   10.0072    5.6168    8.1140 H   0  0  0  0  0  0  0  0  0  0  0  0
  1  3  2  0
  1  4  1  0
  1  5  1  0
  2  4  1  0
  2  6  1  0
  4  9  1  0
  4 15  1  0
  5  6  1  0
  5  8  1  0
  6  7  2  3
  9 10  2  0
  9 14  1  0
 10 11  1  0
 11 12  2  0
 12 13  1  0
 13 14  2  0
 15 16  2  0
 15 20  1  0
 16 17  1  0
 17 18  2  0
 18 19  1  0
 19 20  2  0
  2 21  1  0
  7 22  1  0
  8 23  1  0
  8 24  1  0
  8 25  1  0
 10 26  1  0
 11 27  1  0
 12 28  1  0
 13 29  1  0
 14 30  1  0
 16 31  1  0
 17 32  1  0
 19 33  1  0
 20 34  1  0
 35 36  1  0
 36 37  1  0
 37 38  1  0
 38 39  1  0
 39 40  1  0
 40 41  1  0
 41 36  1  0
 35 42  1  0
 35 43  1  0
 36 44  1  0
 37 45  1  0
 37 46  1  0
 38 47  1  0
 38 48  1  0
 39 49  1  0
 39 50  1  0
 40 51  1  0
 40 52  1  0
 41 53  1  0
 41 54  1  0
 18 35  1  0
M  END
>  <attachment_point>  (98) 
32

>  <score>  (98) 
<NA>

$$$$
4djw
     RDKit          3D

 37 39  0  0  0  0  0  0  0  0999 V2000
   22.4950   11.8750   22.5810 C   0  0  0  0  0  0  0  0  0  0  0  0
   22.5380    9.4930   22.4640 N   0  0  0  0  0  0  0  0  0  0  0  0
   22.3600   13.0630   22.3480 O   0  0  0  0  0  0  0  0  0  0  0  0
   22.3390   10.6680   21.5610 C   0  0  0  0  0  0  0  0  0  0  0  0
   22.7860   11.3350   23.8120 N   0  0  0  0  0  0  0  0  0  0  0  0
   22.7800    9.9140   23.7010 C   0  0  0  0  0  0  0  0  0  0  0  0
   22.9970    9.1110   24.7490 N   0  0  0  0  0  0  0  0  0  0  0  0
   23.0220   12.1410   25.0180 C   0  0  0  0  0  0  0  0  0  0  0  0
   20.9020   10.6270   21.0050 C   0  0  0  0  0  0  0  0  0  0  0  0
   20.2720    9.4140   20.7470 C   0  0  0  0  0  0  0  0  0  0  0  0
   18.9690    9.3760   20.2600 C   0  0  0  0  0  0  0  0  0  0  0  0
   18.2800   10.5440   20.0210 C   0  0  0  0  0  0  0  0  0  0  0  0
   18.8920   11.7530   20.2590 C   0  0  0  0  0  0  0  0  0  0  0  0
   20.1950   11.7970   20.7440 C   0  0  0  0  0  0  0  0  0  0  0  0
   23.4880   10.6920   20.5300 C   0  0  0  0  0  0  0  0  0  0  0  0
   23.2110   10.7890   19.1730 C   0  0  0  0  0  0  0  0  0  0  0  0
   24.2350   10.8650   18.2430 C   0  0  0  0  0  0  0  0  0  0  0  0
   25.5500   10.8410   18.6560 C   0  0  0  0  0  0  0  0  0  0  0  0
   25.8710   10.7460   20.0070 C   0  0  0  0  0  0  0  0  0  0  0  0
   24.8260   10.6610   20.9430 C   0  0  0  0  0  0  0  0  0  0  0  0
    0.0000    0.0000    0.0000 H   0  0  0  0  0  0  0  0  0  0  0  0
    0.0000    0.0000    0.0000 H   0  0  0  0  0  0  0  0  0  0  0  0
    0.0000    0.0000    0.0000 H   0  0  0  0  0  0  0  0  0  0  0  0
    0.0000    0.0000    0.0000 H   0  0  0  0  0  0  0  0  0  0  0  0
    0.0000    0.0000    0.0000 H   0  0  0  0  0  0  0  0  0  0  0  0
    0.0000    0.0000    0.0000 H   0  0  0  0  0  0  0  0  0  0  0  0
    0.0000    0.0000    0.0000 H   0  0  0  0  0  0  0  0  0  0  0  0
    0.0000    0.0000    0.0000 H   0  0  0  0  0  0  0  0  0  0  0  0
    0.0000    0.0000    0.0000 H   0  0  0  0  0  0  0  0  0  0  0  0
    0.0000    0.0000    0.0000 H   0  0  0  0  0  0  0  0  0  0  0  0
    0.0000    0.0000    0.0000 H   0  0  0  0  0  0  0  0  0  0  0  0
    0.0000    0.0000    0.0000 H   0  0  0  0  0  0  0  0  0  0  0  0
    0.0000    0.0000    0.0000 H   0  0  0  0  0  0  0  0  0  0  0  0
    0.0000    0.0000    0.0000 H   0  0  0  0  0  0  0  0  0  0  0  0
   12.4115    5.2662    9.0625 C   0  0  0  0  0  0  0  0  0  0  0  0
   11.4914    4.8948    8.3910 C   0  0  0  0  0  0  0  0  0  0  0  0
   10.6748    4.5802    7.8127 H   0  0  0  0  0  0  0  0  0  0  0  0
  1  3  2  0
  1  4  1  0
  1  5  1  0
  2  4  1  0
  2  6  1  0
  4  9  1  0
  4 15  1  0
  5  6  1  0
  5  8  1  0
  6  7  2  3
  9 10  2  0
  9 14  1  0
 10 11  1  0
 11 12  2  0
 12 13  1  0
 13 14  2  0
 15 16  2  0
 15 20  1  0
 16 17  1  0
 17 18  2  0
 18 19  1  0
 19 20  2  0
  2 21  1  0
  7 22  1  0
  8 23  1  0
  8 24  1  0
  8 25  1  0
 10 26  1  0
 11 27  1  0
 12 28  1  0
 13 29  1  0
 14 30  1  0
 16 31  1  0
 17 32  1  0
 19 33  1  0
 20 34  1  0
 35 36  3  0
 36 37  1  0
 18 35  1  0
M  END
>  <attachment_point>  (99) 
32

>  <score>  (99) 
<NA>

$$$$
4djw
     RDKit          3D

 48 51  0  0  0  0  0  0  0  0999 V2000
   22.4950   11.8750   22.5810 C   0  0  0  0  0  0  0  0  0  0  0  0
   22.5380    9.4930   22.4640 N   0  0  0  0  0  0  0  0  0  0  0  0
   22.3600   13.0630   22.3480 O   0  0  0  0  0  0  0  0  0  0  0  0
   22.3390   10.6680   21.5610 C   0  0  0  0  0  0  0  0  0  0  0  0
   22.7860   11.3350   23.8120 N   0  0  0  0  0  0  0  0  0  0  0  0
   22.7800    9.9140   23.7010 C   0  0  0  0  0  0  0  0  0  0  0  0
   22.9970    9.1110   24.7490 N   0  0  0  0  0  0  0  0  0  0  0  0
   23.0220   12.1410   25.0180 C   0  0  0  0  0  0  0  0  0  0  0  0
   20.9020   10.6270   21.0050 C   0  0  0  0  0  0  0  0  0  0  0  0
   20.2720    9.4140   20.7470 C   0  0  0  0  0  0  0  0  0  0  0  0
   18.9690    9.3760   20.2600 C   0  0  0  0  0  0  0  0  0  0  0  0
   18.2800   10.5440   20.0210 C   0  0  0  0  0  0  0  0  0  0  0  0
   18.8920   11.7530   20.2590 C   0  0  0  0  0  0  0  0  0  0  0  0
   20.1950   11.7970   20.7440 C   0  0  0  0  0  0  0  0  0  0  0  0
   23.4880   10.6920   20.5300 C   0  0  0  0  0  0  0  0  0  0  0  0
   23.2110   10.7890   19.1730 C   0  0  0  0  0  0  0  0  0  0  0  0
   24.2350   10.8650   18.2430 C   0  0  0  0  0  0  0  0  0  0  0  0
   25.5500   10.8410   18.6560 C   0  0  0  0  0  0  0  0  0  0  0  0
   25.8710   10.7460   20.0070 C   0  0  0  0  0  0  0  0  0  0  0  0
   24.8260   10.6610   20.9430 C   0  0  0  0  0  0  0  0  0  0  0  0
    0.0000    0.0000    0.0000 H   0  0  0  0  0  0  0  0  0  0  0  0
    0.0000    0.0000    0.0000 H   0  0  0  0  0  0  0  0  0  0  0  0
    0.0000    0.0000    0.0000 H   0  0  0  0  0  0  0  0  0  0  0  0
    0.0000    0.0000    0.0000 H   0  0  0  0  0  0  0  0  0  0  0  0
    0.0000    0.0000    0.0000 H   0  0  0  0  0  0  0  0  0  0  0  0
    0.0000    0.0000    0.0000 H   0  0  0  0  0  0  0  0  0  0  0  0
    0.0000    0.0000    0.0000 H   0  0  0  0  0  0  0  0  0  0  0  0
    0.0000    0.0000    0.0000 H   0  0  0  0  0  0  0  0  0  0  0  0
    0.0000    0.0000    0.0000 H   0  0  0  0  0  0  0  0  0  0  0  0
    0.0000    0.0000    0.0000 H   0  0  0  0  0  0  0  0  0  0  0  0
    0.0000    0.0000    0.0000 H   0  0  0  0  0  0  0  0  0  0  0  0
    0.0000    0.0000    0.0000 H   0  0  0  0  0  0  0  0  0  0  0  0
    0.0000    0.0000    0.0000 H   0  0  0  0  0  0  0  0  0  0  0  0
    0.0000    0.0000    0.0000 H   0  0  0  0  0  0  0  0  0  0  0  0
   12.3606    5.2447    9.0254 C   0  0  0  0  0  0  0  0  0  0  0  0
   11.3509    4.6829    9.6562 C   0  0  0  0  0  0  0  0  0  0  0  0
   10.2822    4.2329    8.8383 C   0  0  0  0  0  0  0  0  0  0  0  0
   10.3809    4.4148    7.4747 C   0  0  0  0  0  0  0  0  0  0  0  0
    9.3466    3.9852    6.6226 O   0  0  0  0  0  0  0  0  0  0  0  0
    9.4700    4.1816    5.2340 C   0  0  0  0  0  0  0  0  0  0  0  0
   11.4414    4.9973    6.8884 N   0  0  0  0  0  0  0  0  0  0  0  0
   12.4735    5.4283    7.7141 C   0  0  0  0  0  0  0  0  0  0  0  0
   11.2726    4.5404   10.7201 H   0  0  0  0  0  0  0  0  0  0  0  0
    9.4380    3.7702    9.2946 H   0  0  0  0  0  0  0  0  0  0  0  0
    9.4966    5.2400    4.9361 H   0  0  0  0  0  0  0  0  0  0  0  0
    8.5940    3.6489    4.7681 H   0  0  0  0  0  0  0  0  0  0  0  0
   10.3661    3.6504    4.8063 H   0  0  0  0  0  0  0  0  0  0  0  0
   13.3448    5.9010    7.2933 H   0  0  0  0  0  0  0  0  0  0  0  0
  1  3  2  0
  1  4  1  0
  1  5  1  0
  2  4  1  0
  2  6  1  0
  4  9  1  0
  4 15  1  0
  5  6  1  0
  5  8  1  0
  6  7  2  3
  9 10  2  0
  9 14  1  0
 10 11  1  0
 11 12  2  0
 12 13  1  0
 13 14  2  0
 15 16  2  0
 15 20  1  0
 16 17  1  0
 17 18  2  0
 18 19  1  0
 19 20  2  0
  2 21  1  0
  7 22  1  0
  8 23  1  0
  8 24  1  0
  8 25  1  0
 10 26  1  0
 11 27  1  0
 12 28  1  0
 13 29  1  0
 14 30  1  0
 16 31  1  0
 17 32  1  0
 19 33  1  0
 20 34  1  0
 35 36  2  0
 36 37  1  0
 37 38  2  0
 38 39  1  0
 39 40  1  0
 38 41  1  0
 41 42  2  0
 42 35  1  0
 36 43  1  0
 37 44  1  0
 40 45  1  0
 40 46  1  0
 40 47  1  0
 42 48  1  0
 18 35  1  0
M  END
>  <attachment_point>  (100) 
32

>  <score>  (100) 
<NA>

$$$$
4djw
     RDKit          3D

 50 53  0  0  0  0  0  0  0  0999 V2000
   22.4950   11.8750   22.5810 C   0  0  0  0  0  0  0  0  0  0  0  0
   22.5380    9.4930   22.4640 N   0  0  0  0  0  0  0  0  0  0  0  0
   22.3600   13.0630   22.3480 O   0  0  0  0  0  0  0  0  0  0  0  0
   22.3390   10.6680   21.5610 C   0  0  0  0  0  0  0  0  0  0  0  0
   22.7860   11.3350   23.8120 N   0  0  0  0  0  0  0  0  0  0  0  0
   22.7800    9.9140   23.7010 C   0  0  0  0  0  0  0  0  0  0  0  0
   22.9970    9.1110   24.7490 N   0  0  0  0  0  0  0  0  0  0  0  0
   23.0220   12.1410   25.0180 C   0  0  0  0  0  0  0  0  0  0  0  0
   20.9020   10.6270   21.0050 C   0  0  0  0  0  0  0  0  0  0  0  0
   20.2720    9.4140   20.7470 C   0  0  0  0  0  0  0  0  0  0  0  0
   18.9690    9.3760   20.2600 C   0  0  0  0  0  0  0  0  0  0  0  0
   18.2800   10.5440   20.0210 C   0  0  0  0  0  0  0  0  0  0  0  0
   18.8920   11.7530   20.2590 C   0  0  0  0  0  0  0  0  0  0  0  0
   20.1950   11.7970   20.7440 C   0  0  0  0  0  0  0  0  0  0  0  0
   23.4880   10.6920   20.5300 C   0  0  0  0  0  0  0  0  0  0  0  0
   23.2110   10.7890   19.1730 C   0  0  0  0  0  0  0  0  0  0  0  0
   24.2350   10.8650   18.2430 C   0  0  0  0  0  0  0  0  0  0  0  0
   25.5500   10.8410   18.6560 C   0  0  0  0  0  0  0  0  0  0  0  0
   25.8710   10.7460   20.0070 C   0  0  0  0  0  0  0  0  0  0  0  0
   24.8260   10.6610   20.9430 C   0  0  0  0  0  0  0  0  0  0  0  0
    0.0000    0.0000    0.0000 H   0  0  0  0  0  0  0  0  0  0  0  0
    0.0000    0.0000    0.0000 H   0  0  0  0  0  0  0  0  0  0  0  0
    0.0000    0.0000    0.0000 H   0  0  0  0  0  0  0  0  0  0  0  0
    0.0000    0.0000    0.0000 H   0  0  0  0  0  0  0  0  0  0  0  0
    0.0000    0.0000    0.0000 H   0  0  0  0  0  0  0  0  0  0  0  0
    0.0000    0.0000    0.0000 H   0  0  0  0  0  0  0  0  0  0  0  0
    0.0000    0.0000    0.0000 H   0  0  0  0  0  0  0  0  0  0  0  0
    0.0000    0.0000    0.0000 H   0  0  0  0  0  0  0  0  0  0  0  0
    0.0000    0.0000    0.0000 H   0  0  0  0  0  0  0  0  0  0  0  0
    0.0000    0.0000    0.0000 H   0  0  0  0  0  0  0  0  0  0  0  0
    0.0000    0.0000    0.0000 H   0  0  0  0  0  0  0  0  0  0  0  0
    0.0000    0.0000    0.0000 H   0  0  0  0  0  0  0  0  0  0  0  0
    0.0000    0.0000    0.0000 H   0  0  0  0  0  0  0  0  0  0  0  0
    0.0000    0.0000    0.0000 H   0  0  0  0  0  0  0  0  0  0  0  0
   12.4612    5.2873    9.0989 C   0  0  0  0  0  0  0  0  0  0  0  0
   11.2531    6.1385    9.4753 C   0  0  0  0  0  0  0  0  0  0  0  0
   10.9409    5.7788   10.9339 C   0  0  0  0  0  0  0  0  0  0  0  0
   10.4793    4.4207   10.8991 N   0  0  0  0  0  0  0  0  0  0  0  0
   11.6114    3.5579   10.7098 C   0  0  0  0  0  0  0  0  0  0  0  0
   12.1489    3.8279    9.3113 C   0  0  0  0  0  0  0  0  0  0  0  0
   12.5958    5.4201    7.9921 H   0  0  0  0  0  0  0  0  0  0  0  0
   10.3534    5.8086    8.9012 H   0  0  0  0  0  0  0  0  0  0  0  0
   11.4669    7.1984    9.3575 H   0  0  0  0  0  0  0  0  0  0  0  0
   10.1457    6.4441   11.2661 H   0  0  0  0  0  0  0  0  0  0  0  0
   11.8890    5.8699   11.5022 H   0  0  0  0  0  0  0  0  0  0  0  0
    9.8351    4.1510   11.6412 H   0  0  0  0  0  0  0  0  0  0  0  0
   12.3952    3.6690   11.4861 H   0  0  0  0  0  0  0  0  0  0  0  0
   11.2421    2.5156   10.7095 H   0  0  0  0  0  0  0  0  0  0  0  0
   13.0563    3.2428    9.1283 H   0  0  0  0  0  0  0  0  0  0  0  0
   11.3255    3.5702    8.6067 H   0  0  0  0  0  0  0  0  0  0  0  0
  1  3  2  0
  1  4  1  0
  1  5  1  0
  2  4  1  0
  2  6  1  0
  4  9  1  0
  4 15  1  0
  5  6  1  0
  5  8  1  0
  6  7  2  3
  9 10  2  0
  9 14  1  0
 10 11  1  0
 11 12  2  0
 12 13  1  0
 13 14  2  0
 15 16  2  0
 15 20  1  0
 16 17  1  0
 17 18  2  0
 18 19  1  0
 19 20  2  0
  2 21  1  0
  7 22  1  0
  8 23  1  0
  8 24  1  0
  8 25  1  0
 10 26  1  0
 11 27  1  0
 12 28  1  0
 13 29  1  0
 14 30  1  0
 16 31  1  0
 17 32  1  0
 19 33  1  0
 20 34  1  0
 35 36  1  0
 36 37  1  0
 37 38  1  0
 38 39  1  0
 39 40  1  0
 40 35  1  0
 35 41  1  0
 36 42  1  0
 36 43  1  0
 37 44  1  0
 37 45  1  0
 38 46  1  0
 39 47  1  0
 39 48  1  0
 40 49  1  0
 40 50  1  0
 18 35  1  0
M  END
>  <attachment_point>  (101) 
32

>  <score>  (101) 
<NA>

$$$$
4djw
     RDKit          3D

 49 51  0  0  0  0  0  0  0  0999 V2000
   22.4950   11.8750   22.5810 C   0  0  0  0  0  0  0  0  0  0  0  0
   22.5380    9.4930   22.4640 N   0  0  0  0  0  0  0  0  0  0  0  0
   22.3600   13.0630   22.3480 O   0  0  0  0  0  0  0  0  0  0  0  0
   22.3390   10.6680   21.5610 C   0  0  0  0  0  0  0  0  0  0  0  0
   22.7860   11.3350   23.8120 N   0  0  0  0  0  0  0  0  0  0  0  0
   22.7800    9.9140   23.7010 C   0  0  0  0  0  0  0  0  0  0  0  0
   22.9970    9.1110   24.7490 N   0  0  0  0  0  0  0  0  0  0  0  0
   23.0220   12.1410   25.0180 C   0  0  0  0  0  0  0  0  0  0  0  0
   20.9020   10.6270   21.0050 C   0  0  0  0  0  0  0  0  0  0  0  0
   20.2720    9.4140   20.7470 C   0  0  0  0  0  0  0  0  0  0  0  0
   18.9690    9.3760   20.2600 C   0  0  0  0  0  0  0  0  0  0  0  0
   18.2800   10.5440   20.0210 C   0  0  0  0  0  0  0  0  0  0  0  0
   18.8920   11.7530   20.2590 C   0  0  0  0  0  0  0  0  0  0  0  0
   20.1950   11.7970   20.7440 C   0  0  0  0  0  0  0  0  0  0  0  0
   23.4880   10.6920   20.5300 C   0  0  0  0  0  0  0  0  0  0  0  0
   23.2110   10.7890   19.1730 C   0  0  0  0  0  0  0  0  0  0  0  0
   24.2350   10.8650   18.2430 C   0  0  0  0  0  0  0  0  0  0  0  0
   25.5500   10.8410   18.6560 C   0  0  0  0  0  0  0  0  0  0  0  0
   25.8710   10.7460   20.0070 C   0  0  0  0  0  0  0  0  0  0  0  0
   24.8260   10.6610   20.9430 C   0  0  0  0  0  0  0  0  0  0  0  0
    0.0000    0.0000    0.0000 H   0  0  0  0  0  0  0  0  0  0  0  0
    0.0000    0.0000    0.0000 H   0  0  0  0  0  0  0  0  0  0  0  0
    0.0000    0.0000    0.0000 H   0  0  0  0  0  0  0  0  0  0  0  0
    0.0000    0.0000    0.0000 H   0  0  0  0  0  0  0  0  0  0  0  0
    0.0000    0.0000    0.0000 H   0  0  0  0  0  0  0  0  0  0  0  0
    0.0000    0.0000    0.0000 H   0  0  0  0  0  0  0  0  0  0  0  0
    0.0000    0.0000    0.0000 H   0  0  0  0  0  0  0  0  0  0  0  0
    0.0000    0.0000    0.0000 H   0  0  0  0  0  0  0  0  0  0  0  0
    0.0000    0.0000    0.0000 H   0  0  0  0  0  0  0  0  0  0  0  0
    0.0000    0.0000    0.0000 H   0  0  0  0  0  0  0  0  0  0  0  0
    0.0000    0.0000    0.0000 H   0  0  0  0  0  0  0  0  0  0  0  0
    0.0000    0.0000    0.0000 H   0  0  0  0  0  0  0  0  0  0  0  0
    0.0000    0.0000    0.0000 H   0  0  0  0  0  0  0  0  0  0  0  0
    0.0000    0.0000    0.0000 H   0  0  0  0  0  0  0  0  0  0  0  0
   12.4613    5.2874    9.0990 C   0  0  0  0  0  0  0  0  0  0  0  0
   12.5375    5.6570    7.6330 C   0  0  0  0  0  0  0  0  0  0  0  0
   13.6947    5.1602    6.9796 N   0  0  0  0  0  0  0  0  0  0  0  0
   14.9259    5.7777    7.4101 C   0  0  0  0  0  0  0  0  0  0  0  0
   13.8064    3.7380    6.9518 C   0  0  0  0  0  0  0  0  0  0  0  0
   12.3376    4.1959    9.2601 H   0  0  0  0  0  0  0  0  0  0  0  0
   11.5552    5.7857    9.5714 H   0  0  0  0  0  0  0  0  0  0  0  0
   11.6452    5.2258    7.1312 H   0  0  0  0  0  0  0  0  0  0  0  0
   12.4350    6.7489    7.5273 H   0  0  0  0  0  0  0  0  0  0  0  0
   15.0560    6.7992    6.9631 H   0  0  0  0  0  0  0  0  0  0  0  0
   15.0360    5.7991    8.5033 H   0  0  0  0  0  0  0  0  0  0  0  0
   15.7588    5.1694    6.9857 H   0  0  0  0  0  0  0  0  0  0  0  0
   14.6163    3.4283    6.2578 H   0  0  0  0  0  0  0  0  0  0  0  0
   12.8735    3.2913    6.5672 H   0  0  0  0  0  0  0  0  0  0  0  0
   13.9748    3.3004    7.9677 H   0  0  0  0  0  0  0  0  0  0  0  0
  1  3  2  0
  1  4  1  0
  1  5  1  0
  2  4  1  0
  2  6  1  0
  4  9  1  0
  4 15  1  0
  5  6  1  0
  5  8  1  0
  6  7  2  3
  9 10  2  0
  9 14  1  0
 10 11  1  0
 11 12  2  0
 12 13  1  0
 13 14  2  0
 15 16  2  0
 15 20  1  0
 16 17  1  0
 17 18  2  0
 18 19  1  0
 19 20  2  0
  2 21  1  0
  7 22  1  0
  8 23  1  0
  8 24  1  0
  8 25  1  0
 10 26  1  0
 11 27  1  0
 12 28  1  0
 13 29  1  0
 14 30  1  0
 16 31  1  0
 17 32  1  0
 19 33  1  0
 20 34  1  0
 35 36  1  0
 36 37  1  0
 37 38  1  0
 37 39  1  0
 35 40  1  0
 35 41  1  0
 36 42  1  0
 36 43  1  0
 38 44  1  0
 38 45  1  0
 38 46  1  0
 39 47  1  0
 39 48  1  0
 39 49  1  0
 18 35  1  0
M  END
>  <attachment_point>  (102) 
32

>  <score>  (102) 
<NA>

$$$$
4djw
     RDKit          3D

 41 44  0  0  0  0  0  0  0  0999 V2000
   22.4950   11.8750   22.5810 C   0  0  0  0  0  0  0  0  0  0  0  0
   22.5380    9.4930   22.4640 N   0  0  0  0  0  0  0  0  0  0  0  0
   22.3600   13.0630   22.3480 O   0  0  0  0  0  0  0  0  0  0  0  0
   22.3390   10.6680   21.5610 C   0  0  0  0  0  0  0  0  0  0  0  0
   22.7860   11.3350   23.8120 N   0  0  0  0  0  0  0  0  0  0  0  0
   22.7800    9.9140   23.7010 C   0  0  0  0  0  0  0  0  0  0  0  0
   22.9970    9.1110   24.7490 N   0  0  0  0  0  0  0  0  0  0  0  0
   23.0220   12.1410   25.0180 C   0  0  0  0  0  0  0  0  0  0  0  0
   20.9020   10.6270   21.0050 C   0  0  0  0  0  0  0  0  0  0  0  0
   20.2720    9.4140   20.7470 C   0  0  0  0  0  0  0  0  0  0  0  0
   18.9690    9.3760   20.2600 C   0  0  0  0  0  0  0  0  0  0  0  0
   18.2800   10.5440   20.0210 C   0  0  0  0  0  0  0  0  0  0  0  0
   18.8920   11.7530   20.2590 C   0  0  0  0  0  0  0  0  0  0  0  0
   20.1950   11.7970   20.7440 C   0  0  0  0  0  0  0  0  0  0  0  0
   23.4880   10.6920   20.5300 C   0  0  0  0  0  0  0  0  0  0  0  0
   23.2110   10.7890   19.1730 C   0  0  0  0  0  0  0  0  0  0  0  0
   24.2350   10.8650   18.2430 C   0  0  0  0  0  0  0  0  0  0  0  0
   25.5500   10.8410   18.6560 C   0  0  0  0  0  0  0  0  0  0  0  0
   25.8710   10.7460   20.0070 C   0  0  0  0  0  0  0  0  0  0  0  0
   24.8260   10.6610   20.9430 C   0  0  0  0  0  0  0  0  0  0  0  0
    0.0000    0.0000    0.0000 H   0  0  0  0  0  0  0  0  0  0  0  0
    0.0000    0.0000    0.0000 H   0  0  0  0  0  0  0  0  0  0  0  0
    0.0000    0.0000    0.0000 H   0  0  0  0  0  0  0  0  0  0  0  0
    0.0000    0.0000    0.0000 H   0  0  0  0  0  0  0  0  0  0  0  0
    0.0000    0.0000    0.0000 H   0  0  0  0  0  0  0  0  0  0  0  0
    0.0000    0.0000    0.0000 H   0  0  0  0  0  0  0  0  0  0  0  0
    0.0000    0.0000    0.0000 H   0  0  0  0  0  0  0  0  0  0  0  0
    0.0000    0.0000    0.0000 H   0  0  0  0  0  0  0  0  0  0  0  0
    0.0000    0.0000    0.0000 H   0  0  0  0  0  0  0  0  0  0  0  0
    0.0000    0.0000    0.0000 H   0  0  0  0  0  0  0  0  0  0  0  0
    0.0000    0.0000    0.0000 H   0  0  0  0  0  0  0  0  0  0  0  0
    0.0000    0.0000    0.0000 H   0  0  0  0  0  0  0  0  0  0  0  0
    0.0000    0.0000    0.0000 H   0  0  0  0  0  0  0  0  0  0  0  0
    0.0000    0.0000    0.0000 H   0  0  0  0  0  0  0  0  0  0  0  0
   12.4342    5.2759    9.0792 C   0  0  0  0  0  0  0  0  0  0  0  0
   11.3008    4.8379    9.5416 N   0  0  0  0  0  0  0  0  0  0  0  0
   10.3769    4.4414    8.7303 C   0  0  0  0  0  0  0  0  0  0  0  0
   10.6320    4.4989    7.3859 C   0  0  0  0  0  0  0  0  0  0  0  0
   12.2391    5.1419    7.3891 S   0  0  0  0  0  0  0  0  0  0  0  0
    9.3970    4.0610    9.0797 H   0  0  0  0  0  0  0  0  0  0  0  0
   10.0019    4.2190    6.5471 H   0  0  0  0  0  0  0  0  0  0  0  0
  1  3  2  0
  1  4  1  0
  1  5  1  0
  2  4  1  0
  2  6  1  0
  4  9  1  0
  4 15  1  0
  5  6  1  0
  5  8  1  0
  6  7  2  3
  9 10  2  0
  9 14  1  0
 10 11  1  0
 11 12  2  0
 12 13  1  0
 13 14  2  0
 15 16  2  0
 15 20  1  0
 16 17  1  0
 17 18  2  0
 18 19  1  0
 19 20  2  0
  2 21  1  0
  7 22  1  0
  8 23  1  0
  8 24  1  0
  8 25  1  0
 10 26  1  0
 11 27  1  0
 12 28  1  0
 13 29  1  0
 14 30  1  0
 16 31  1  0
 17 32  1  0
 19 33  1  0
 20 34  1  0
 35 36  2  0
 36 37  1  0
 37 38  2  0
 38 39  1  0
 39 35  1  0
 37 40  1  0
 38 41  1  0
 18 35  1  0
M  END
>  <attachment_point>  (103) 
32

>  <score>  (103) 
<NA>

$$$$
4djw
     RDKit          3D

 45 48  0  0  0  0  0  0  0  0999 V2000
   22.4950   11.8750   22.5810 C   0  0  0  0  0  0  0  0  0  0  0  0
   22.5380    9.4930   22.4640 N   0  0  0  0  0  0  0  0  0  0  0  0
   22.3600   13.0630   22.3480 O   0  0  0  0  0  0  0  0  0  0  0  0
   22.3390   10.6680   21.5610 C   0  0  0  0  0  0  0  0  0  0  0  0
   22.7860   11.3350   23.8120 N   0  0  0  0  0  0  0  0  0  0  0  0
   22.7800    9.9140   23.7010 C   0  0  0  0  0  0  0  0  0  0  0  0
   22.9970    9.1110   24.7490 N   0  0  0  0  0  0  0  0  0  0  0  0
   23.0220   12.1410   25.0180 C   0  0  0  0  0  0  0  0  0  0  0  0
   20.9020   10.6270   21.0050 C   0  0  0  0  0  0  0  0  0  0  0  0
   20.2720    9.4140   20.7470 C   0  0  0  0  0  0  0  0  0  0  0  0
   18.9690    9.3760   20.2600 C   0  0  0  0  0  0  0  0  0  0  0  0
   18.2800   10.5440   20.0210 C   0  0  0  0  0  0  0  0  0  0  0  0
   18.8920   11.7530   20.2590 C   0  0  0  0  0  0  0  0  0  0  0  0
   20.1950   11.7970   20.7440 C   0  0  0  0  0  0  0  0  0  0  0  0
   23.4880   10.6920   20.5300 C   0  0  0  0  0  0  0  0  0  0  0  0
   23.2110   10.7890   19.1730 C   0  0  0  0  0  0  0  0  0  0  0  0
   24.2350   10.8650   18.2430 C   0  0  0  0  0  0  0  0  0  0  0  0
   25.5500   10.8410   18.6560 C   0  0  0  0  0  0  0  0  0  0  0  0
   25.8710   10.7460   20.0070 C   0  0  0  0  0  0  0  0  0  0  0  0
   24.8260   10.6610   20.9430 C   0  0  0  0  0  0  0  0  0  0  0  0
    0.0000    0.0000    0.0000 H   0  0  0  0  0  0  0  0  0  0  0  0
    0.0000    0.0000    0.0000 H   0  0  0  0  0  0  0  0  0  0  0  0
    0.0000    0.0000    0.0000 H   0  0  0  0  0  0  0  0  0  0  0  0
    0.0000    0.0000    0.0000 H   0  0  0  0  0  0  0  0  0  0  0  0
    0.0000    0.0000    0.0000 H   0  0  0  0  0  0  0  0  0  0  0  0
    0.0000    0.0000    0.0000 H   0  0  0  0  0  0  0  0  0  0  0  0
    0.0000    0.0000    0.0000 H   0  0  0  0  0  0  0  0  0  0  0  0
    0.0000    0.0000    0.0000 H   0  0  0  0  0  0  0  0  0  0  0  0
    0.0000    0.0000    0.0000 H   0  0  0  0  0  0  0  0  0  0  0  0
    0.0000    0.0000    0.0000 H   0  0  0  0  0  0  0  0  0  0  0  0
    0.0000    0.0000    0.0000 H   0  0  0  0  0  0  0  0  0  0  0  0
    0.0000    0.0000    0.0000 H   0  0  0  0  0  0  0  0  0  0  0  0
    0.0000    0.0000    0.0000 H   0  0  0  0  0  0  0  0  0  0  0  0
    0.0000    0.0000    0.0000 H   0  0  0  0  0  0  0  0  0  0  0  0
   12.4602    5.2869    9.0982 C   0  0  0  0  0  0  0  0  0  0  0  0
   12.5221    4.0790    8.3958 C   0  0  0  0  0  0  0  0  0  0  0  0
   11.4509    3.6586    7.6342 C   0  0  0  0  0  0  0  0  0  0  0  0
   10.3103    4.4507    7.5743 C   0  0  0  0  0  0  0  0  0  0  0  0
    8.8417    3.8431    6.5115 Br  0  0  0  0  0  0  0  0  0  0  0  0
   10.2171    5.6511    8.2573 C   0  0  0  0  0  0  0  0  0  0  0  0
   11.3092    6.0413    9.0104 C   0  0  0  0  0  0  0  0  0  0  0  0
   13.4139    3.4687    8.4481 H   0  0  0  0  0  0  0  0  0  0  0  0
   11.5354    2.7150    7.1026 H   0  0  0  0  0  0  0  0  0  0  0  0
    9.3329    6.2748    8.2168 H   0  0  0  0  0  0  0  0  0  0  0  0
   11.2340    6.9914    9.5503 H   0  0  0  0  0  0  0  0  0  0  0  0
  1  3  2  0
  1  4  1  0
  1  5  1  0
  2  4  1  0
  2  6  1  0
  4  9  1  0
  4 15  1  0
  5  6  1  0
  5  8  1  0
  6  7  2  3
  9 10  2  0
  9 14  1  0
 10 11  1  0
 11 12  2  0
 12 13  1  0
 13 14  2  0
 15 16  2  0
 15 20  1  0
 16 17  1  0
 17 18  2  0
 18 19  1  0
 19 20  2  0
  2 21  1  0
  7 22  1  0
  8 23  1  0
  8 24  1  0
  8 25  1  0
 10 26  1  0
 11 27  1  0
 12 28  1  0
 13 29  1  0
 14 30  1  0
 16 31  1  0
 17 32  1  0
 19 33  1  0
 20 34  1  0
 35 36  2  0
 36 37  1  0
 37 38  2  0
 38 39  1  0
 38 40  1  0
 40 41  2  0
 41 35  1  0
 36 42  1  0
 37 43  1  0
 40 44  1  0
 41 45  1  0
 18 35  1  0
M  END
>  <attachment_point>  (104) 
32

>  <score>  (104) 
<NA>

$$$$
4djw
     RDKit          3D

 47 50  0  0  0  0  0  0  0  0999 V2000
   22.4950   11.8750   22.5810 C   0  0  0  0  0  0  0  0  0  0  0  0
   22.5380    9.4930   22.4640 N   0  0  0  0  0  0  0  0  0  0  0  0
   22.3600   13.0630   22.3480 O   0  0  0  0  0  0  0  0  0  0  0  0
   22.3390   10.6680   21.5610 C   0  0  0  0  0  0  0  0  0  0  0  0
   22.7860   11.3350   23.8120 N   0  0  0  0  0  0  0  0  0  0  0  0
   22.7800    9.9140   23.7010 C   0  0  0  0  0  0  0  0  0  0  0  0
   22.9970    9.1110   24.7490 N   0  0  0  0  0  0  0  0  0  0  0  0
   23.0220   12.1410   25.0180 C   0  0  0  0  0  0  0  0  0  0  0  0
   20.9020   10.6270   21.0050 C   0  0  0  0  0  0  0  0  0  0  0  0
   20.2720    9.4140   20.7470 C   0  0  0  0  0  0  0  0  0  0  0  0
   18.9690    9.3760   20.2600 C   0  0  0  0  0  0  0  0  0  0  0  0
   18.2800   10.5440   20.0210 C   0  0  0  0  0  0  0  0  0  0  0  0
   18.8920   11.7530   20.2590 C   0  0  0  0  0  0  0  0  0  0  0  0
   20.1950   11.7970   20.7440 C   0  0  0  0  0  0  0  0  0  0  0  0
   23.4880   10.6920   20.5300 C   0  0  0  0  0  0  0  0  0  0  0  0
   23.2110   10.7890   19.1730 C   0  0  0  0  0  0  0  0  0  0  0  0
   24.2350   10.8650   18.2430 C   0  0  0  0  0  0  0  0  0  0  0  0
   25.5500   10.8410   18.6560 C   0  0  0  0  0  0  0  0  0  0  0  0
   25.8710   10.7460   20.0070 C   0  0  0  0  0  0  0  0  0  0  0  0
   24.8260   10.6610   20.9430 C   0  0  0  0  0  0  0  0  0  0  0  0
    0.0000    0.0000    0.0000 H   0  0  0  0  0  0  0  0  0  0  0  0
    0.0000    0.0000    0.0000 H   0  0  0  0  0  0  0  0  0  0  0  0
    0.0000    0.0000    0.0000 H   0  0  0  0  0  0  0  0  0  0  0  0
    0.0000    0.0000    0.0000 H   0  0  0  0  0  0  0  0  0  0  0  0
    0.0000    0.0000    0.0000 H   0  0  0  0  0  0  0  0  0  0  0  0
    0.0000    0.0000    0.0000 H   0  0  0  0  0  0  0  0  0  0  0  0
    0.0000    0.0000    0.0000 H   0  0  0  0  0  0  0  0  0  0  0  0
    0.0000    0.0000    0.0000 H   0  0  0  0  0  0  0  0  0  0  0  0
    0.0000    0.0000    0.0000 H   0  0  0  0  0  0  0  0  0  0  0  0
    0.0000    0.0000    0.0000 H   0  0  0  0  0  0  0  0  0  0  0  0
    0.0000    0.0000    0.0000 H   0  0  0  0  0  0  0  0  0  0  0  0
    0.0000    0.0000    0.0000 H   0  0  0  0  0  0  0  0  0  0  0  0
    0.0000    0.0000    0.0000 H   0  0  0  0  0  0  0  0  0  0  0  0
    0.0000    0.0000    0.0000 H   0  0  0  0  0  0  0  0  0  0  0  0
   12.4583    5.2861    9.0968 C   0  0  0  0  0  0  0  0  0  0  0  0
   12.8535    4.7324    7.7710 C   0  0  0  0  0  0  0  0  0  0  0  0
   12.9361    5.5409    6.6620 C   0  0  0  0  0  0  0  0  0  0  0  0
   13.3066    4.9749    5.4616 C   0  0  0  0  0  0  0  0  0  0  0  0
   13.5880    3.6535    5.3518 N   0  0  0  0  0  0  0  0  0  0  0  0
   13.5101    2.8603    6.4250 C   0  0  0  0  0  0  0  0  0  0  0  0
   13.1421    3.3964    7.6407 C   0  0  0  0  0  0  0  0  0  0  0  0
   11.9487    4.4656    9.6468 H   0  0  0  0  0  0  0  0  0  0  0  0
   11.7144    6.1006    8.9811 H   0  0  0  0  0  0  0  0  0  0  0  0
   12.7188    6.5856    6.7251 H   0  0  0  0  0  0  0  0  0  0  0  0
   13.3876    5.5617    4.5598 H   0  0  0  0  0  0  0  0  0  0  0  0
   13.7367    1.7855    6.3460 H   0  0  0  0  0  0  0  0  0  0  0  0
   13.0835    2.7421    8.5007 H   0  0  0  0  0  0  0  0  0  0  0  0
  1  3  2  0
  1  4  1  0
  1  5  1  0
  2  4  1  0
  2  6  1  0
  4  9  1  0
  4 15  1  0
  5  6  1  0
  5  8  1  0
  6  7  2  3
  9 10  2  0
  9 14  1  0
 10 11  1  0
 11 12  2  0
 12 13  1  0
 13 14  2  0
 15 16  2  0
 15 20  1  0
 16 17  1  0
 17 18  2  0
 18 19  1  0
 19 20  2  0
  2 21  1  0
  7 22  1  0
  8 23  1  0
  8 24  1  0
  8 25  1  0
 10 26  1  0
 11 27  1  0
 12 28  1  0
 13 29  1  0
 14 30  1  0
 16 31  1  0
 17 32  1  0
 19 33  1  0
 20 34  1  0
 35 36  1  0
 36 37  2  0
 37 38  1  0
 38 39  2  0
 39 40  1  0
 40 41  2  0
 41 36  1  0
 35 42  1  0
 35 43  1  0
 37 44  1  0
 38 45  1  0
 40 46  1  0
 41 47  1  0
 18 35  1  0
M  END
>  <attachment_point>  (105) 
32

>  <score>  (105) 
<NA>

$$$$
4djw
     RDKit          3D

 46 48  0  0  0  0  0  0  0  0999 V2000
   22.4950   11.8750   22.5810 C   0  0  0  0  0  0  0  0  0  0  0  0
   22.5380    9.4930   22.4640 N   0  0  0  0  0  0  0  0  0  0  0  0
   22.3600   13.0630   22.3480 O   0  0  0  0  0  0  0  0  0  0  0  0
   22.3390   10.6680   21.5610 C   0  0  0  0  0  0  0  0  0  0  0  0
   22.7860   11.3350   23.8120 N   0  0  0  0  0  0  0  0  0  0  0  0
   22.7800    9.9140   23.7010 C   0  0  0  0  0  0  0  0  0  0  0  0
   22.9970    9.1110   24.7490 N   0  0  0  0  0  0  0  0  0  0  0  0
   23.0220   12.1410   25.0180 C   0  0  0  0  0  0  0  0  0  0  0  0
   20.9020   10.6270   21.0050 C   0  0  0  0  0  0  0  0  0  0  0  0
   20.2720    9.4140   20.7470 C   0  0  0  0  0  0  0  0  0  0  0  0
   18.9690    9.3760   20.2600 C   0  0  0  0  0  0  0  0  0  0  0  0
   18.2800   10.5440   20.0210 C   0  0  0  0  0  0  0  0  0  0  0  0
   18.8920   11.7530   20.2590 C   0  0  0  0  0  0  0  0  0  0  0  0
   20.1950   11.7970   20.7440 C   0  0  0  0  0  0  0  0  0  0  0  0
   23.4880   10.6920   20.5300 C   0  0  0  0  0  0  0  0  0  0  0  0
   23.2110   10.7890   19.1730 C   0  0  0  0  0  0  0  0  0  0  0  0
   24.2350   10.8650   18.2430 C   0  0  0  0  0  0  0  0  0  0  0  0
   25.5500   10.8410   18.6560 C   0  0  0  0  0  0  0  0  0  0  0  0
   25.8710   10.7460   20.0070 C   0  0  0  0  0  0  0  0  0  0  0  0
   24.8260   10.6610   20.9430 C   0  0  0  0  0  0  0  0  0  0  0  0
    0.0000    0.0000    0.0000 H   0  0  0  0  0  0  0  0  0  0  0  0
    0.0000    0.0000    0.0000 H   0  0  0  0  0  0  0  0  0  0  0  0
    0.0000    0.0000    0.0000 H   0  0  0  0  0  0  0  0  0  0  0  0
    0.0000    0.0000    0.0000 H   0  0  0  0  0  0  0  0  0  0  0  0
    0.0000    0.0000    0.0000 H   0  0  0  0  0  0  0  0  0  0  0  0
    0.0000    0.0000    0.0000 H   0  0  0  0  0  0  0  0  0  0  0  0
    0.0000    0.0000    0.0000 H   0  0  0  0  0  0  0  0  0  0  0  0
    0.0000    0.0000    0.0000 H   0  0  0  0  0  0  0  0  0  0  0  0
    0.0000    0.0000    0.0000 H   0  0  0  0  0  0  0  0  0  0  0  0
    0.0000    0.0000    0.0000 H   0  0  0  0  0  0  0  0  0  0  0  0
    0.0000    0.0000    0.0000 H   0  0  0  0  0  0  0  0  0  0  0  0
    0.0000    0.0000    0.0000 H   0  0  0  0  0  0  0  0  0  0  0  0
    0.0000    0.0000    0.0000 H   0  0  0  0  0  0  0  0  0  0  0  0
    0.0000    0.0000    0.0000 H   0  0  0  0  0  0  0  0  0  0  0  0
   12.4943    5.3014    9.1230 O   0  0  0  0  0  0  0  0  0  0  0  0
   11.7509    6.3255    8.5131 C   0  0  0  0  0  0  0  0  0  0  0  0
   10.6411    5.6819    7.7113 C   0  0  0  0  0  0  0  0  0  0  0  0
    9.7860    4.9247    8.4668 O   0  0  0  0  0  0  0  0  0  0  0  0
    9.1340    5.6096    9.4592 C   0  0  0  0  0  0  0  0  0  0  0  0
   12.4470    6.7969    7.7774 H   0  0  0  0  0  0  0  0  0  0  0  0
   11.3778    7.0550    9.2540 H   0  0  0  0  0  0  0  0  0  0  0  0
   10.1466    6.4670    7.1139 H   0  0  0  0  0  0  0  0  0  0  0  0
   11.1445    4.9960    6.9845 H   0  0  0  0  0  0  0  0  0  0  0  0
    9.8190    6.0750   10.2001 H   0  0  0  0  0  0  0  0  0  0  0  0
    8.5144    4.8596   10.0228 H   0  0  0  0  0  0  0  0  0  0  0  0
    8.4510    6.4001    9.1075 H   0  0  0  0  0  0  0  0  0  0  0  0
  1  3  2  0
  1  4  1  0
  1  5  1  0
  2  4  1  0
  2  6  1  0
  4  9  1  0
  4 15  1  0
  5  6  1  0
  5  8  1  0
  6  7  2  3
  9 10  2  0
  9 14  1  0
 10 11  1  0
 11 12  2  0
 12 13  1  0
 13 14  2  0
 15 16  2  0
 15 20  1  0
 16 17  1  0
 17 18  2  0
 18 19  1  0
 19 20  2  0
  2 21  1  0
  7 22  1  0
  8 23  1  0
  8 24  1  0
  8 25  1  0
 10 26  1  0
 11 27  1  0
 12 28  1  0
 13 29  1  0
 14 30  1  0
 16 31  1  0
 17 32  1  0
 19 33  1  0
 20 34  1  0
 35 36  1  0
 36 37  1  0
 37 38  1  0
 38 39  1  0
 36 40  1  0
 36 41  1  0
 37 42  1  0
 37 43  1  0
 39 44  1  0
 39 45  1  0
 39 46  1  0
 18 35  1  0
M  END
>  <attachment_point>  (106) 
32

>  <score>  (106) 
<NA>

$$$$
4djw
     RDKit          3D

 53 55  0  0  0  0  0  0  0  0999 V2000
   22.4950   11.8750   22.5810 C   0  0  0  0  0  0  0  0  0  0  0  0
   22.5380    9.4930   22.4640 N   0  0  0  0  0  0  0  0  0  0  0  0
   22.3600   13.0630   22.3480 O   0  0  0  0  0  0  0  0  0  0  0  0
   22.3390   10.6680   21.5610 C   0  0  0  0  0  0  0  0  0  0  0  0
   22.7860   11.3350   23.8120 N   0  0  0  0  0  0  0  0  0  0  0  0
   22.7800    9.9140   23.7010 C   0  0  0  0  0  0  0  0  0  0  0  0
   22.9970    9.1110   24.7490 N   0  0  0  0  0  0  0  0  0  0  0  0
   23.0220   12.1410   25.0180 C   0  0  0  0  0  0  0  0  0  0  0  0
   20.9020   10.6270   21.0050 C   0  0  0  0  0  0  0  0  0  0  0  0
   20.2720    9.4140   20.7470 C   0  0  0  0  0  0  0  0  0  0  0  0
   18.9690    9.3760   20.2600 C   0  0  0  0  0  0  0  0  0  0  0  0
   18.2800   10.5440   20.0210 C   0  0  0  0  0  0  0  0  0  0  0  0
   18.8920   11.7530   20.2590 C   0  0  0  0  0  0  0  0  0  0  0  0
   20.1950   11.7970   20.7440 C   0  0  0  0  0  0  0  0  0  0  0  0
   23.4880   10.6920   20.5300 C   0  0  0  0  0  0  0  0  0  0  0  0
   23.2110   10.7890   19.1730 C   0  0  0  0  0  0  0  0  0  0  0  0
   24.2350   10.8650   18.2430 C   0  0  0  0  0  0  0  0  0  0  0  0
   25.5500   10.8410   18.6560 C   0  0  0  0  0  0  0  0  0  0  0  0
   25.8710   10.7460   20.0070 C   0  0  0  0  0  0  0  0  0  0  0  0
   24.8260   10.6610   20.9430 C   0  0  0  0  0  0  0  0  0  0  0  0
    0.0000    0.0000    0.0000 H   0  0  0  0  0  0  0  0  0  0  0  0
    0.0000    0.0000    0.0000 H   0  0  0  0  0  0  0  0  0  0  0  0
    0.0000    0.0000    0.0000 H   0  0  0  0  0  0  0  0  0  0  0  0
    0.0000    0.0000    0.0000 H   0  0  0  0  0  0  0  0  0  0  0  0
    0.0000    0.0000    0.0000 H   0  0  0  0  0  0  0  0  0  0  0  0
    0.0000    0.0000    0.0000 H   0  0  0  0  0  0  0  0  0  0  0  0
    0.0000    0.0000    0.0000 H   0  0  0  0  0  0  0  0  0  0  0  0
    0.0000    0.0000    0.0000 H   0  0  0  0  0  0  0  0  0  0  0  0
    0.0000    0.0000    0.0000 H   0  0  0  0  0  0  0  0  0  0  0  0
    0.0000    0.0000    0.0000 H   0  0  0  0  0  0  0  0  0  0  0  0
    0.0000    0.0000    0.0000 H   0  0  0  0  0  0  0  0  0  0  0  0
    0.0000    0.0000    0.0000 H   0  0  0  0  0  0  0  0  0  0  0  0
    0.0000    0.0000    0.0000 H   0  0  0  0  0  0  0  0  0  0  0  0
    0.0000    0.0000    0.0000 H   0  0  0  0  0  0  0  0  0  0  0  0
   12.4254    5.2722    9.0727 C   0  0  0  0  0  0  0  0  0  0  0  0
   11.5698    6.4726    8.8193 C   0  0  0  0  0  0  0  0  0  0  0  0
   12.3533    7.5322    8.0919 C   0  0  0  0  0  0  0  0  0  0  0  0
   11.5263    8.7669    7.8138 C   0  0  0  0  0  0  0  0  0  0  0  0
   10.3212    8.4625    6.9637 C   0  0  0  0  0  0  0  0  0  0  0  0
    9.5820    9.7826    6.7610 C   0  0  0  0  0  0  0  0  0  0  0  0
   12.9083    4.8717    8.1706 H   0  0  0  0  0  0  0  0  0  0  0  0
   11.9680    4.5194    9.7105 H   0  0  0  0  0  0  0  0  0  0  0  0
   10.6712    6.1515    8.2590 H   0  0  0  0  0  0  0  0  0  0  0  0
   11.1996    6.8348    9.8069 H   0  0  0  0  0  0  0  0  0  0  0  0
   13.1884    7.8461    8.7549 H   0  0  0  0  0  0  0  0  0  0  0  0
   12.7610    7.0889    7.1735 H   0  0  0  0  0  0  0  0  0  0  0  0
   12.1524    9.4837    7.2448 H   0  0  0  0  0  0  0  0  0  0  0  0
   11.2164    9.2585    8.7320 H   0  0  0  0  0  0  0  0  0  0  0  0
    9.6551    7.6967    7.3979 H   0  0  0  0  0  0  0  0  0  0  0  0
   10.6061    8.1049    5.9487 H   0  0  0  0  0  0  0  0  0  0  0  0
    9.1933    9.8748    5.7314 H   0  0  0  0  0  0  0  0  0  0  0  0
    8.8041    9.8624    7.5309 H   0  0  0  0  0  0  0  0  0  0  0  0
   10.2822   10.6504    6.9400 H   0  0  0  0  0  0  0  0  0  0  0  0
  1  3  2  0
  1  4  1  0
  1  5  1  0
  2  4  1  0
  2  6  1  0
  4  9  1  0
  4 15  1  0
  5  6  1  0
  5  8  1  0
  6  7  2  3
  9 10  2  0
  9 14  1  0
 10 11  1  0
 11 12  2  0
 12 13  1  0
 13 14  2  0
 15 16  2  0
 15 20  1  0
 16 17  1  0
 17 18  2  0
 18 19  1  0
 19 20  2  0
  2 21  1  0
  7 22  1  0
  8 23  1  0
  8 24  1  0
  8 25  1  0
 10 26  1  0
 11 27  1  0
 12 28  1  0
 13 29  1  0
 14 30  1  0
 16 31  1  0
 17 32  1  0
 19 33  1  0
 20 34  1  0
 35 36  1  0
 36 37  1  0
 37 38  1  0
 38 39  1  0
 39 40  1  0
 35 41  1  0
 35 42  1  0
 36 43  1  0
 36 44  1  0
 37 45  1  0
 37 46  1  0
 38 47  1  0
 38 48  1  0
 39 49  1  0
 39 50  1  0
 40 51  1  0
 40 52  1  0
 40 53  1  0
 18 35  1  0
M  END
>  <attachment_point>  (107) 
32

>  <score>  (107) 
<NA>

$$$$
4djw
     RDKit          3D

 49 52  0  0  0  0  0  0  0  0999 V2000
   22.4950   11.8750   22.5810 C   0  0  0  0  0  0  0  0  0  0  0  0
   22.5380    9.4930   22.4640 N   0  0  0  0  0  0  0  0  0  0  0  0
   22.3600   13.0630   22.3480 O   0  0  0  0  0  0  0  0  0  0  0  0
   22.3390   10.6680   21.5610 C   0  0  0  0  0  0  0  0  0  0  0  0
   22.7860   11.3350   23.8120 N   0  0  0  0  0  0  0  0  0  0  0  0
   22.7800    9.9140   23.7010 C   0  0  0  0  0  0  0  0  0  0  0  0
   22.9970    9.1110   24.7490 N   0  0  0  0  0  0  0  0  0  0  0  0
   23.0220   12.1410   25.0180 C   0  0  0  0  0  0  0  0  0  0  0  0
   20.9020   10.6270   21.0050 C   0  0  0  0  0  0  0  0  0  0  0  0
   20.2720    9.4140   20.7470 C   0  0  0  0  0  0  0  0  0  0  0  0
   18.9690    9.3760   20.2600 C   0  0  0  0  0  0  0  0  0  0  0  0
   18.2800   10.5440   20.0210 C   0  0  0  0  0  0  0  0  0  0  0  0
   18.8920   11.7530   20.2590 C   0  0  0  0  0  0  0  0  0  0  0  0
   20.1950   11.7970   20.7440 C   0  0  0  0  0  0  0  0  0  0  0  0
   23.4880   10.6920   20.5300 C   0  0  0  0  0  0  0  0  0  0  0  0
   23.2110   10.7890   19.1730 C   0  0  0  0  0  0  0  0  0  0  0  0
   24.2350   10.8650   18.2430 C   0  0  0  0  0  0  0  0  0  0  0  0
   25.5500   10.8410   18.6560 C   0  0  0  0  0  0  0  0  0  0  0  0
   25.8710   10.7460   20.0070 C   0  0  0  0  0  0  0  0  0  0  0  0
   24.8260   10.6610   20.9430 C   0  0  0  0  0  0  0  0  0  0  0  0
    0.0000    0.0000    0.0000 H   0  0  0  0  0  0  0  0  0  0  0  0
    0.0000    0.0000    0.0000 H   0  0  0  0  0  0  0  0  0  0  0  0
    0.0000    0.0000    0.0000 H   0  0  0  0  0  0  0  0  0  0  0  0
    0.0000    0.0000    0.0000 H   0  0  0  0  0  0  0  0  0  0  0  0
    0.0000    0.0000    0.0000 H   0  0  0  0  0  0  0  0  0  0  0  0
    0.0000    0.0000    0.0000 H   0  0  0  0  0  0  0  0  0  0  0  0
    0.0000    0.0000    0.0000 H   0  0  0  0  0  0  0  0  0  0  0  0
    0.0000    0.0000    0.0000 H   0  0  0  0  0  0  0  0  0  0  0  0
    0.0000    0.0000    0.0000 H   0  0  0  0  0  0  0  0  0  0  0  0
    0.0000    0.0000    0.0000 H   0  0  0  0  0  0  0  0  0  0  0  0
    0.0000    0.0000    0.0000 H   0  0  0  0  0  0  0  0  0  0  0  0
    0.0000    0.0000    0.0000 H   0  0  0  0  0  0  0  0  0  0  0  0
    0.0000    0.0000    0.0000 H   0  0  0  0  0  0  0  0  0  0  0  0
    0.0000    0.0000    0.0000 H   0  0  0  0  0  0  0  0  0  0  0  0
   12.4776    5.2943    9.1109 C   0  0  0  0  0  0  0  0  0  0  0  0
   11.4610    4.3715    9.7784 C   0  0  0  0  0  0  0  0  0  0  0  0
   10.6505    3.7288    8.7041 C   0  0  0  0  0  0  0  0  0  0  0  0
   10.6045    4.6003    7.5975 O   0  0  0  0  0  0  0  0  0  0  0  0
   10.3969    5.9218    8.0042 C   0  0  0  0  0  0  0  0  0  0  0  0
   11.6608    6.4831    8.6045 C   0  0  0  0  0  0  0  0  0  0  0  0
   12.8532    4.7771    8.1948 H   0  0  0  0  0  0  0  0  0  0  0  0
   10.7809    4.9322   10.4551 H   0  0  0  0  0  0  0  0  0  0  0  0
   12.0629    3.6557   10.3826 H   0  0  0  0  0  0  0  0  0  0  0  0
   11.0828    2.7764    8.3189 H   0  0  0  0  0  0  0  0  0  0  0  0
    9.5839    3.5787    8.9957 H   0  0  0  0  0  0  0  0  0  0  0  0
    9.5336    5.9488    8.6901 H   0  0  0  0  0  0  0  0  0  0  0  0
   10.0926    6.4905    7.0981 H   0  0  0  0  0  0  0  0  0  0  0  0
   12.2441    6.9909    7.8010 H   0  0  0  0  0  0  0  0  0  0  0  0
   11.4414    7.1819    9.4276 H   0  0  0  0  0  0  0  0  0  0  0  0
  1  3  2  0
  1  4  1  0
  1  5  1  0
  2  4  1  0
  2  6  1  0
  4  9  1  0
  4 15  1  0
  5  6  1  0
  5  8  1  0
  6  7  2  3
  9 10  2  0
  9 14  1  0
 10 11  1  0
 11 12  2  0
 12 13  1  0
 13 14  2  0
 15 16  2  0
 15 20  1  0
 16 17  1  0
 17 18  2  0
 18 19  1  0
 19 20  2  0
  2 21  1  0
  7 22  1  0
  8 23  1  0
  8 24  1  0
  8 25  1  0
 10 26  1  0
 11 27  1  0
 12 28  1  0
 13 29  1  0
 14 30  1  0
 16 31  1  0
 17 32  1  0
 19 33  1  0
 20 34  1  0
 35 36  1  0
 36 37  1  0
 37 38  1  0
 38 39  1  0
 39 40  1  0
 40 35  1  0
 35 41  1  0
 36 42  1  0
 36 43  1  0
 37 44  1  0
 37 45  1  0
 39 46  1  0
 39 47  1  0
 40 48  1  0
 40 49  1  0
 18 35  1  0
M  END
>  <attachment_point>  (108) 
32

>  <score>  (108) 
<NA>

$$$$
4djw
     RDKit          3D

 43 46  0  0  0  0  0  0  0  0999 V2000
   22.4950   11.8750   22.5810 C   0  0  0  0  0  0  0  0  0  0  0  0
   22.5380    9.4930   22.4640 N   0  0  0  0  0  0  0  0  0  0  0  0
   22.3600   13.0630   22.3480 O   0  0  0  0  0  0  0  0  0  0  0  0
   22.3390   10.6680   21.5610 C   0  0  0  0  0  0  0  0  0  0  0  0
   22.7860   11.3350   23.8120 N   0  0  0  0  0  0  0  0  0  0  0  0
   22.7800    9.9140   23.7010 C   0  0  0  0  0  0  0  0  0  0  0  0
   22.9970    9.1110   24.7490 N   0  0  0  0  0  0  0  0  0  0  0  0
   23.0220   12.1410   25.0180 C   0  0  0  0  0  0  0  0  0  0  0  0
   20.9020   10.6270   21.0050 C   0  0  0  0  0  0  0  0  0  0  0  0
   20.2720    9.4140   20.7470 C   0  0  0  0  0  0  0  0  0  0  0  0
   18.9690    9.3760   20.2600 C   0  0  0  0  0  0  0  0  0  0  0  0
   18.2800   10.5440   20.0210 C   0  0  0  0  0  0  0  0  0  0  0  0
   18.8920   11.7530   20.2590 C   0  0  0  0  0  0  0  0  0  0  0  0
   20.1950   11.7970   20.7440 C   0  0  0  0  0  0  0  0  0  0  0  0
   23.4880   10.6920   20.5300 C   0  0  0  0  0  0  0  0  0  0  0  0
   23.2110   10.7890   19.1730 C   0  0  0  0  0  0  0  0  0  0  0  0
   24.2350   10.8650   18.2430 C   0  0  0  0  0  0  0  0  0  0  0  0
   25.5500   10.8410   18.6560 C   0  0  0  0  0  0  0  0  0  0  0  0
   25.8710   10.7460   20.0070 C   0  0  0  0  0  0  0  0  0  0  0  0
   24.8260   10.6610   20.9430 C   0  0  0  0  0  0  0  0  0  0  0  0
    0.0000    0.0000    0.0000 H   0  0  0  0  0  0  0  0  0  0  0  0
    0.0000    0.0000    0.0000 H   0  0  0  0  0  0  0  0  0  0  0  0
    0.0000    0.0000    0.0000 H   0  0  0  0  0  0  0  0  0  0  0  0
    0.0000    0.0000    0.0000 H   0  0  0  0  0  0  0  0  0  0  0  0
    0.0000    0.0000    0.0000 H   0  0  0  0  0  0  0  0  0  0  0  0
    0.0000    0.0000    0.0000 H   0  0  0  0  0  0  0  0  0  0  0  0
    0.0000    0.0000    0.0000 H   0  0  0  0  0  0  0  0  0  0  0  0
    0.0000    0.0000    0.0000 H   0  0  0  0  0  0  0  0  0  0  0  0
    0.0000    0.0000    0.0000 H   0  0  0  0  0  0  0  0  0  0  0  0
    0.0000    0.0000    0.0000 H   0  0  0  0  0  0  0  0  0  0  0  0
    0.0000    0.0000    0.0000 H   0  0  0  0  0  0  0  0  0  0  0  0
    0.0000    0.0000    0.0000 H   0  0  0  0  0  0  0  0  0  0  0  0
    0.0000    0.0000    0.0000 H   0  0  0  0  0  0  0  0  0  0  0  0
    0.0000    0.0000    0.0000 H   0  0  0  0  0  0  0  0  0  0  0  0
   12.4168    5.2685    9.0665 C   0  0  0  0  0  0  0  0  0  0  0  0
   12.5854    5.0838    7.7671 N   0  0  0  0  0  0  0  0  0  0  0  0
   11.5377    4.6401    7.0067 C   0  0  0  0  0  0  0  0  0  0  0  0
   10.3140    4.3858    7.5835 C   0  0  0  0  0  0  0  0  0  0  0  0
   10.1705    4.5881    8.9391 C   0  0  0  0  0  0  0  0  0  0  0  0
   11.2463    5.0325    9.6580 N   0  0  0  0  0  0  0  0  0  0  0  0
   11.6796    4.4909    5.9481 H   0  0  0  0  0  0  0  0  0  0  0  0
    9.4840    4.0352    6.9858 H   0  0  0  0  0  0  0  0  0  0  0  0
    9.2240    4.3971    9.4166 H   0  0  0  0  0  0  0  0  0  0  0  0
  1  3  2  0
  1  4  1  0
  1  5  1  0
  2  4  1  0
  2  6  1  0
  4  9  1  0
  4 15  1  0
  5  6  1  0
  5  8  1  0
  6  7  2  3
  9 10  2  0
  9 14  1  0
 10 11  1  0
 11 12  2  0
 12 13  1  0
 13 14  2  0
 15 16  2  0
 15 20  1  0
 16 17  1  0
 17 18  2  0
 18 19  1  0
 19 20  2  0
  2 21  1  0
  7 22  1  0
  8 23  1  0
  8 24  1  0
  8 25  1  0
 10 26  1  0
 11 27  1  0
 12 28  1  0
 13 29  1  0
 14 30  1  0
 16 31  1  0
 17 32  1  0
 19 33  1  0
 20 34  1  0
 35 36  2  0
 36 37  1  0
 37 38  2  0
 38 39  1  0
 39 40  2  0
 40 35  1  0
 37 41  1  0
 38 42  1  0
 39 43  1  0
 18 35  1  0
M  END
>  <attachment_point>  (109) 
32

>  <score>  (109) 
<NA>

$$$$
4djw
     RDKit          3D

 43 45  0  0  0  0  0  0  0  0999 V2000
   22.4950   11.8750   22.5810 C   0  0  0  0  0  0  0  0  0  0  0  0
   22.5380    9.4930   22.4640 N   0  0  0  0  0  0  0  0  0  0  0  0
   22.3600   13.0630   22.3480 O   0  0  0  0  0  0  0  0  0  0  0  0
   22.3390   10.6680   21.5610 C   0  0  0  0  0  0  0  0  0  0  0  0
   22.7860   11.3350   23.8120 N   0  0  0  0  0  0  0  0  0  0  0  0
   22.7800    9.9140   23.7010 C   0  0  0  0  0  0  0  0  0  0  0  0
   22.9970    9.1110   24.7490 N   0  0  0  0  0  0  0  0  0  0  0  0
   23.0220   12.1410   25.0180 C   0  0  0  0  0  0  0  0  0  0  0  0
   20.9020   10.6270   21.0050 C   0  0  0  0  0  0  0  0  0  0  0  0
   20.2720    9.4140   20.7470 C   0  0  0  0  0  0  0  0  0  0  0  0
   18.9690    9.3760   20.2600 C   0  0  0  0  0  0  0  0  0  0  0  0
   18.2800   10.5440   20.0210 C   0  0  0  0  0  0  0  0  0  0  0  0
   18.8920   11.7530   20.2590 C   0  0  0  0  0  0  0  0  0  0  0  0
   20.1950   11.7970   20.7440 C   0  0  0  0  0  0  0  0  0  0  0  0
   23.4880   10.6920   20.5300 C   0  0  0  0  0  0  0  0  0  0  0  0
   23.2110   10.7890   19.1730 C   0  0  0  0  0  0  0  0  0  0  0  0
   24.2350   10.8650   18.2430 C   0  0  0  0  0  0  0  0  0  0  0  0
   25.5500   10.8410   18.6560 C   0  0  0  0  0  0  0  0  0  0  0  0
   25.8710   10.7460   20.0070 C   0  0  0  0  0  0  0  0  0  0  0  0
   24.8260   10.6610   20.9430 C   0  0  0  0  0  0  0  0  0  0  0  0
    0.0000    0.0000    0.0000 H   0  0  0  0  0  0  0  0  0  0  0  0
    0.0000    0.0000    0.0000 H   0  0  0  0  0  0  0  0  0  0  0  0
    0.0000    0.0000    0.0000 H   0  0  0  0  0  0  0  0  0  0  0  0
    0.0000    0.0000    0.0000 H   0  0  0  0  0  0  0  0  0  0  0  0
    0.0000    0.0000    0.0000 H   0  0  0  0  0  0  0  0  0  0  0  0
    0.0000    0.0000    0.0000 H   0  0  0  0  0  0  0  0  0  0  0  0
    0.0000    0.0000    0.0000 H   0  0  0  0  0  0  0  0  0  0  0  0
    0.0000    0.0000    0.0000 H   0  0  0  0  0  0  0  0  0  0  0  0
    0.0000    0.0000    0.0000 H   0  0  0  0  0  0  0  0  0  0  0  0
    0.0000    0.0000    0.0000 H   0  0  0  0  0  0  0  0  0  0  0  0
    0.0000    0.0000    0.0000 H   0  0  0  0  0  0  0  0  0  0  0  0
    0.0000    0.0000    0.0000 H   0  0  0  0  0  0  0  0  0  0  0  0
    0.0000    0.0000    0.0000 H   0  0  0  0  0  0  0  0  0  0  0  0
    0.0000    0.0000    0.0000 H   0  0  0  0  0  0  0  0  0  0  0  0
   12.4228    5.2711    9.0708 N   0  0  0  0  0  0  0  0  0  0  0  0
   11.4829    6.4018    9.0940 C   0  0  0  0  0  0  0  0  0  0  0  0
   12.1583    7.6235    8.5022 C   0  0  0  0  0  0  0  0  0  0  0  0
   12.9065    5.3342    8.1468 H   0  0  0  0  0  0  0  0  0  0  0  0
   11.0994    6.5840   10.1204 H   0  0  0  0  0  0  0  0  0  0  0  0
   10.6169    6.0780    8.4918 H   0  0  0  0  0  0  0  0  0  0  0  0
   13.0442    7.3173    7.9083 H   0  0  0  0  0  0  0  0  0  0  0  0
   12.5352    8.2748    9.3124 H   0  0  0  0  0  0  0  0  0  0  0  0
   11.4697    8.2152    7.8682 H   0  0  0  0  0  0  0  0  0  0  0  0
  1  3  2  0
  1  4  1  0
  1  5  1  0
  2  4  1  0
  2  6  1  0
  4  9  1  0
  4 15  1  0
  5  6  1  0
  5  8  1  0
  6  7  2  3
  9 10  2  0
  9 14  1  0
 10 11  1  0
 11 12  2  0
 12 13  1  0
 13 14  2  0
 15 16  2  0
 15 20  1  0
 16 17  1  0
 17 18  2  0
 18 19  1  0
 19 20  2  0
  2 21  1  0
  7 22  1  0
  8 23  1  0
  8 24  1  0
  8 25  1  0
 10 26  1  0
 11 27  1  0
 12 28  1  0
 13 29  1  0
 14 30  1  0
 16 31  1  0
 17 32  1  0
 19 33  1  0
 20 34  1  0
 35 36  1  0
 36 37  1  0
 35 38  1  0
 36 39  1  0
 36 40  1  0
 37 41  1  0
 37 42  1  0
 37 43  1  0
 18 35  1  0
M  END
>  <attachment_point>  (110) 
32

>  <score>  (110) 
<NA>

$$$$
4djw
     RDKit          3D

 42 45  0  0  0  0  0  0  0  0999 V2000
   22.4950   11.8750   22.5810 C   0  0  0  0  0  0  0  0  0  0  0  0
   22.5380    9.4930   22.4640 N   0  0  0  0  0  0  0  0  0  0  0  0
   22.3600   13.0630   22.3480 O   0  0  0  0  0  0  0  0  0  0  0  0
   22.3390   10.6680   21.5610 C   0  0  0  0  0  0  0  0  0  0  0  0
   22.7860   11.3350   23.8120 N   0  0  0  0  0  0  0  0  0  0  0  0
   22.7800    9.9140   23.7010 C   0  0  0  0  0  0  0  0  0  0  0  0
   22.9970    9.1110   24.7490 N   0  0  0  0  0  0  0  0  0  0  0  0
   23.0220   12.1410   25.0180 C   0  0  0  0  0  0  0  0  0  0  0  0
   20.9020   10.6270   21.0050 C   0  0  0  0  0  0  0  0  0  0  0  0
   20.2720    9.4140   20.7470 C   0  0  0  0  0  0  0  0  0  0  0  0
   18.9690    9.3760   20.2600 C   0  0  0  0  0  0  0  0  0  0  0  0
   18.2800   10.5440   20.0210 C   0  0  0  0  0  0  0  0  0  0  0  0
   18.8920   11.7530   20.2590 C   0  0  0  0  0  0  0  0  0  0  0  0
   20.1950   11.7970   20.7440 C   0  0  0  0  0  0  0  0  0  0  0  0
   23.4880   10.6920   20.5300 C   0  0  0  0  0  0  0  0  0  0  0  0
   23.2110   10.7890   19.1730 C   0  0  0  0  0  0  0  0  0  0  0  0
   24.2350   10.8650   18.2430 C   0  0  0  0  0  0  0  0  0  0  0  0
   25.5500   10.8410   18.6560 C   0  0  0  0  0  0  0  0  0  0  0  0
   25.8710   10.7460   20.0070 C   0  0  0  0  0  0  0  0  0  0  0  0
   24.8260   10.6610   20.9430 C   0  0  0  0  0  0  0  0  0  0  0  0
    0.0000    0.0000    0.0000 H   0  0  0  0  0  0  0  0  0  0  0  0
    0.0000    0.0000    0.0000 H   0  0  0  0  0  0  0  0  0  0  0  0
    0.0000    0.0000    0.0000 H   0  0  0  0  0  0  0  0  0  0  0  0
    0.0000    0.0000    0.0000 H   0  0  0  0  0  0  0  0  0  0  0  0
    0.0000    0.0000    0.0000 H   0  0  0  0  0  0  0  0  0  0  0  0
    0.0000    0.0000    0.0000 H   0  0  0  0  0  0  0  0  0  0  0  0
    0.0000    0.0000    0.0000 H   0  0  0  0  0  0  0  0  0  0  0  0
    0.0000    0.0000    0.0000 H   0  0  0  0  0  0  0  0  0  0  0  0
    0.0000    0.0000    0.0000 H   0  0  0  0  0  0  0  0  0  0  0  0
    0.0000    0.0000    0.0000 H   0  0  0  0  0  0  0  0  0  0  0  0
    0.0000    0.0000    0.0000 H   0  0  0  0  0  0  0  0  0  0  0  0
    0.0000    0.0000    0.0000 H   0  0  0  0  0  0  0  0  0  0  0  0
    0.0000    0.0000    0.0000 H   0  0  0  0  0  0  0  0  0  0  0  0
    0.0000    0.0000    0.0000 H   0  0  0  0  0  0  0  0  0  0  0  0
   12.3953    5.2594    9.0507 C   0  0  0  0  0  0  0  0  0  0  0  0
   12.4728    4.6175    7.8797 C   0  0  0  0  0  0  0  0  0  0  0  0
   11.1721    4.3951    7.5292 N   0  0  0  0  0  0  0  0  0  0  0  0
   10.3702    4.9011    8.4836 N   0  0  0  0  0  0  0  0  0  0  0  0
   11.1445    5.4583    9.4648 C   0  0  0  0  0  0  0  0  0  0  0  0
   13.3303    4.3144    7.2924 H   0  0  0  0  0  0  0  0  0  0  0  0
    9.3399    4.8322    8.4014 H   0  0  0  0  0  0  0  0  0  0  0  0
   10.7240    5.9218   10.3258 H   0  0  0  0  0  0  0  0  0  0  0  0
  1  3  2  0
  1  4  1  0
  1  5  1  0
  2  4  1  0
  2  6  1  0
  4  9  1  0
  4 15  1  0
  5  6  1  0
  5  8  1  0
  6  7  2  3
  9 10  2  0
  9 14  1  0
 10 11  1  0
 11 12  2  0
 12 13  1  0
 13 14  2  0
 15 16  2  0
 15 20  1  0
 16 17  1  0
 17 18  2  0
 18 19  1  0
 19 20  2  0
  2 21  1  0
  7 22  1  0
  8 23  1  0
  8 24  1  0
  8 25  1  0
 10 26  1  0
 11 27  1  0
 12 28  1  0
 13 29  1  0
 14 30  1  0
 16 31  1  0
 17 32  1  0
 19 33  1  0
 20 34  1  0
 35 36  1  0
 36 37  2  0
 37 38  1  0
 38 39  1  0
 39 35  2  0
 36 40  1  0
 38 41  1  0
 39 42  1  0
 18 35  1  0
M  END
>  <attachment_point>  (111) 
32

>  <score>  (111) 
<NA>

$$$$
4djw
     RDKit          3D

 42 45  0  0  0  0  0  0  0  0999 V2000
   22.4950   11.8750   22.5810 C   0  0  0  0  0  0  0  0  0  0  0  0
   22.5380    9.4930   22.4640 N   0  0  0  0  0  0  0  0  0  0  0  0
   22.3600   13.0630   22.3480 O   0  0  0  0  0  0  0  0  0  0  0  0
   22.3390   10.6680   21.5610 C   0  0  0  0  0  0  0  0  0  0  0  0
   22.7860   11.3350   23.8120 N   0  0  0  0  0  0  0  0  0  0  0  0
   22.7800    9.9140   23.7010 C   0  0  0  0  0  0  0  0  0  0  0  0
   22.9970    9.1110   24.7490 N   0  0  0  0  0  0  0  0  0  0  0  0
   23.0220   12.1410   25.0180 C   0  0  0  0  0  0  0  0  0  0  0  0
   20.9020   10.6270   21.0050 C   0  0  0  0  0  0  0  0  0  0  0  0
   20.2720    9.4140   20.7470 C   0  0  0  0  0  0  0  0  0  0  0  0
   18.9690    9.3760   20.2600 C   0  0  0  0  0  0  0  0  0  0  0  0
   18.2800   10.5440   20.0210 C   0  0  0  0  0  0  0  0  0  0  0  0
   18.8920   11.7530   20.2590 C   0  0  0  0  0  0  0  0  0  0  0  0
   20.1950   11.7970   20.7440 C   0  0  0  0  0  0  0  0  0  0  0  0
   23.4880   10.6920   20.5300 C   0  0  0  0  0  0  0  0  0  0  0  0
   23.2110   10.7890   19.1730 C   0  0  0  0  0  0  0  0  0  0  0  0
   24.2350   10.8650   18.2430 C   0  0  0  0  0  0  0  0  0  0  0  0
   25.5500   10.8410   18.6560 C   0  0  0  0  0  0  0  0  0  0  0  0
   25.8710   10.7460   20.0070 C   0  0  0  0  0  0  0  0  0  0  0  0
   24.8260   10.6610   20.9430 C   0  0  0  0  0  0  0  0  0  0  0  0
    0.0000    0.0000    0.0000 H   0  0  0  0  0  0  0  0  0  0  0  0
    0.0000    0.0000    0.0000 H   0  0  0  0  0  0  0  0  0  0  0  0
    0.0000    0.0000    0.0000 H   0  0  0  0  0  0  0  0  0  0  0  0
    0.0000    0.0000    0.0000 H   0  0  0  0  0  0  0  0  0  0  0  0
    0.0000    0.0000    0.0000 H   0  0  0  0  0  0  0  0  0  0  0  0
    0.0000    0.0000    0.0000 H   0  0  0  0  0  0  0  0  0  0  0  0
    0.0000    0.0000    0.0000 H   0  0  0  0  0  0  0  0  0  0  0  0
    0.0000    0.0000    0.0000 H   0  0  0  0  0  0  0  0  0  0  0  0
    0.0000    0.0000    0.0000 H   0  0  0  0  0  0  0  0  0  0  0  0
    0.0000    0.0000    0.0000 H   0  0  0  0  0  0  0  0  0  0  0  0
    0.0000    0.0000    0.0000 H   0  0  0  0  0  0  0  0  0  0  0  0
    0.0000    0.0000    0.0000 H   0  0  0  0  0  0  0  0  0  0  0  0
    0.0000    0.0000    0.0000 H   0  0  0  0  0  0  0  0  0  0  0  0
    0.0000    0.0000    0.0000 H   0  0  0  0  0  0  0  0  0  0  0  0
   12.4195    5.2697    9.0684 C   0  0  0  0  0  0  0  0  0  0  0  0
   11.0920    5.3563    9.3616 C   0  0  0  0  0  0  0  0  0  0  0  0
   10.4374    4.7759    8.2960 C   0  0  0  0  0  0  0  0  0  0  0  0
   11.3215    4.3741    7.4323 O   0  0  0  0  0  0  0  0  0  0  0  0
   12.5334    4.6512    7.8563 C   0  0  0  0  0  0  0  0  0  0  0  0
   10.6577    5.7916   10.2482 H   0  0  0  0  0  0  0  0  0  0  0  0
    9.3790    4.6789    8.2072 H   0  0  0  0  0  0  0  0  0  0  0  0
   13.4575    4.4375    7.3543 H   0  0  0  0  0  0  0  0  0  0  0  0
  1  3  2  0
  1  4  1  0
  1  5  1  0
  2  4  1  0
  2  6  1  0
  4  9  1  0
  4 15  1  0
  5  6  1  0
  5  8  1  0
  6  7  2  3
  9 10  2  0
  9 14  1  0
 10 11  1  0
 11 12  2  0
 12 13  1  0
 13 14  2  0
 15 16  2  0
 15 20  1  0
 16 17  1  0
 17 18  2  0
 18 19  1  0
 19 20  2  0
  2 21  1  0
  7 22  1  0
  8 23  1  0
  8 24  1  0
  8 25  1  0
 10 26  1  0
 11 27  1  0
 12 28  1  0
 13 29  1  0
 14 30  1  0
 16 31  1  0
 17 32  1  0
 19 33  1  0
 20 34  1  0
 35 36  1  0
 36 37  2  0
 37 38  1  0
 38 39  1  0
 39 35  2  0
 36 40  1  0
 37 41  1  0
 39 42  1  0
 18 35  1  0
M  END
>  <attachment_point>  (112) 
32

>  <score>  (112) 
<NA>

$$$$
4djw
     RDKit          3D

 45 48  0  0  0  0  0  0  0  0999 V2000
   22.4950   11.8750   22.5810 C   0  0  0  0  0  0  0  0  0  0  0  0
   22.5380    9.4930   22.4640 N   0  0  0  0  0  0  0  0  0  0  0  0
   22.3600   13.0630   22.3480 O   0  0  0  0  0  0  0  0  0  0  0  0
   22.3390   10.6680   21.5610 C   0  0  0  0  0  0  0  0  0  0  0  0
   22.7860   11.3350   23.8120 N   0  0  0  0  0  0  0  0  0  0  0  0
   22.7800    9.9140   23.7010 C   0  0  0  0  0  0  0  0  0  0  0  0
   22.9970    9.1110   24.7490 N   0  0  0  0  0  0  0  0  0  0  0  0
   23.0220   12.1410   25.0180 C   0  0  0  0  0  0  0  0  0  0  0  0
   20.9020   10.6270   21.0050 C   0  0  0  0  0  0  0  0  0  0  0  0
   20.2720    9.4140   20.7470 C   0  0  0  0  0  0  0  0  0  0  0  0
   18.9690    9.3760   20.2600 C   0  0  0  0  0  0  0  0  0  0  0  0
   18.2800   10.5440   20.0210 C   0  0  0  0  0  0  0  0  0  0  0  0
   18.8920   11.7530   20.2590 C   0  0  0  0  0  0  0  0  0  0  0  0
   20.1950   11.7970   20.7440 C   0  0  0  0  0  0  0  0  0  0  0  0
   23.4880   10.6920   20.5300 C   0  0  0  0  0  0  0  0  0  0  0  0
   23.2110   10.7890   19.1730 C   0  0  0  0  0  0  0  0  0  0  0  0
   24.2350   10.8650   18.2430 C   0  0  0  0  0  0  0  0  0  0  0  0
   25.5500   10.8410   18.6560 C   0  0  0  0  0  0  0  0  0  0  0  0
   25.8710   10.7460   20.0070 C   0  0  0  0  0  0  0  0  0  0  0  0
   24.8260   10.6610   20.9430 C   0  0  0  0  0  0  0  0  0  0  0  0
    0.0000    0.0000    0.0000 H   0  0  0  0  0  0  0  0  0  0  0  0
    0.0000    0.0000    0.0000 H   0  0  0  0  0  0  0  0  0  0  0  0
    0.0000    0.0000    0.0000 H   0  0  0  0  0  0  0  0  0  0  0  0
    0.0000    0.0000    0.0000 H   0  0  0  0  0  0  0  0  0  0  0  0
    0.0000    0.0000    0.0000 H   0  0  0  0  0  0  0  0  0  0  0  0
    0.0000    0.0000    0.0000 H   0  0  0  0  0  0  0  0  0  0  0  0
    0.0000    0.0000    0.0000 H   0  0  0  0  0  0  0  0  0  0  0  0
    0.0000    0.0000    0.0000 H   0  0  0  0  0  0  0  0  0  0  0  0
    0.0000    0.0000    0.0000 H   0  0  0  0  0  0  0  0  0  0  0  0
    0.0000    0.0000    0.0000 H   0  0  0  0  0  0  0  0  0  0  0  0
    0.0000    0.0000    0.0000 H   0  0  0  0  0  0  0  0  0  0  0  0
    0.0000    0.0000    0.0000 H   0  0  0  0  0  0  0  0  0  0  0  0
    0.0000    0.0000    0.0000 H   0  0  0  0  0  0  0  0  0  0  0  0
    0.0000    0.0000    0.0000 H   0  0  0  0  0  0  0  0  0  0  0  0
   12.4663    5.2895    9.1026 C   0  0  0  0  0  0  0  0  0  0  0  0
   12.1757    6.1211    7.9242 N   0  0  0  0  0  0  0  0  0  0  0  0
   11.3349    7.1701    7.8696 C   0  0  0  0  0  0  0  0  0  0  0  0
   11.3193    7.7039    6.5977 C   0  0  0  0  0  0  0  0  0  0  0  0
   12.1733    6.9500    5.8828 N   0  0  0  0  0  0  0  0  0  0  0  0
   12.6938    5.9876    6.6903 C   0  0  0  0  0  0  0  0  0  0  0  0
   11.5138    5.2502    9.6736 H   0  0  0  0  0  0  0  0  0  0  0  0
   12.6752    4.2653    8.6756 H   0  0  0  0  0  0  0  0  0  0  0  0
   10.7476    7.5573    8.6857 H   0  0  0  0  0  0  0  0  0  0  0  0
   10.7473    8.5482    6.2376 H   0  0  0  0  0  0  0  0  0  0  0  0
   13.4030    5.2300    6.4217 H   0  0  0  0  0  0  0  0  0  0  0  0
  1  3  2  0
  1  4  1  0
  1  5  1  0
  2  4  1  0
  2  6  1  0
  4  9  1  0
  4 15  1  0
  5  6  1  0
  5  8  1  0
  6  7  2  3
  9 10  2  0
  9 14  1  0
 10 11  1  0
 11 12  2  0
 12 13  1  0
 13 14  2  0
 15 16  2  0
 15 20  1  0
 16 17  1  0
 17 18  2  0
 18 19  1  0
 19 20  2  0
  2 21  1  0
  7 22  1  0
  8 23  1  0
  8 24  1  0
  8 25  1  0
 10 26  1  0
 11 27  1  0
 12 28  1  0
 13 29  1  0
 14 30  1  0
 16 31  1  0
 17 32  1  0
 19 33  1  0
 20 34  1  0
 35 36  1  0
 36 37  1  0
 37 38  2  0
 38 39  1  0
 39 40  2  0
 40 36  1  0
 35 41  1  0
 35 42  1  0
 37 43  1  0
 38 44  1  0
 40 45  1  0
 18 35  1  0
M  END
>  <attachment_point>  (113) 
32

>  <score>  (113) 
<NA>

$$$$
4djw
     RDKit          3D

 42 45  0  0  0  0  0  0  0  0999 V2000
   22.4950   11.8750   22.5810 C   0  0  0  0  0  0  0  0  0  0  0  0
   22.5380    9.4930   22.4640 N   0  0  0  0  0  0  0  0  0  0  0  0
   22.3600   13.0630   22.3480 O   0  0  0  0  0  0  0  0  0  0  0  0
   22.3390   10.6680   21.5610 C   0  0  0  0  0  0  0  0  0  0  0  0
   22.7860   11.3350   23.8120 N   0  0  0  0  0  0  0  0  0  0  0  0
   22.7800    9.9140   23.7010 C   0  0  0  0  0  0  0  0  0  0  0  0
   22.9970    9.1110   24.7490 N   0  0  0  0  0  0  0  0  0  0  0  0
   23.0220   12.1410   25.0180 C   0  0  0  0  0  0  0  0  0  0  0  0
   20.9020   10.6270   21.0050 C   0  0  0  0  0  0  0  0  0  0  0  0
   20.2720    9.4140   20.7470 C   0  0  0  0  0  0  0  0  0  0  0  0
   18.9690    9.3760   20.2600 C   0  0  0  0  0  0  0  0  0  0  0  0
   18.2800   10.5440   20.0210 C   0  0  0  0  0  0  0  0  0  0  0  0
   18.8920   11.7530   20.2590 C   0  0  0  0  0  0  0  0  0  0  0  0
   20.1950   11.7970   20.7440 C   0  0  0  0  0  0  0  0  0  0  0  0
   23.4880   10.6920   20.5300 C   0  0  0  0  0  0  0  0  0  0  0  0
   23.2110   10.7890   19.1730 C   0  0  0  0  0  0  0  0  0  0  0  0
   24.2350   10.8650   18.2430 C   0  0  0  0  0  0  0  0  0  0  0  0
   25.5500   10.8410   18.6560 C   0  0  0  0  0  0  0  0  0  0  0  0
   25.8710   10.7460   20.0070 C   0  0  0  0  0  0  0  0  0  0  0  0
   24.8260   10.6610   20.9430 C   0  0  0  0  0  0  0  0  0  0  0  0
    0.0000    0.0000    0.0000 H   0  0  0  0  0  0  0  0  0  0  0  0
    0.0000    0.0000    0.0000 H   0  0  0  0  0  0  0  0  0  0  0  0
    0.0000    0.0000    0.0000 H   0  0  0  0  0  0  0  0  0  0  0  0
    0.0000    0.0000    0.0000 H   0  0  0  0  0  0  0  0  0  0  0  0
    0.0000    0.0000    0.0000 H   0  0  0  0  0  0  0  0  0  0  0  0
    0.0000    0.0000    0.0000 H   0  0  0  0  0  0  0  0  0  0  0  0
    0.0000    0.0000    0.0000 H   0  0  0  0  0  0  0  0  0  0  0  0
    0.0000    0.0000    0.0000 H   0  0  0  0  0  0  0  0  0  0  0  0
    0.0000    0.0000    0.0000 H   0  0  0  0  0  0  0  0  0  0  0  0
    0.0000    0.0000    0.0000 H   0  0  0  0  0  0  0  0  0  0  0  0
    0.0000    0.0000    0.0000 H   0  0  0  0  0  0  0  0  0  0  0  0
    0.0000    0.0000    0.0000 H   0  0  0  0  0  0  0  0  0  0  0  0
    0.0000    0.0000    0.0000 H   0  0  0  0  0  0  0  0  0  0  0  0
    0.0000    0.0000    0.0000 H   0  0  0  0  0  0  0  0  0  0  0  0
   12.4150    5.2677    9.0651 C   0  0  0  0  0  0  0  0  0  0  0  0
   11.1263    5.5287    9.3811 C   0  0  0  0  0  0  0  0  0  0  0  0
   10.1702    5.0317    8.5409 C   0  0  0  0  0  0  0  0  0  0  0  0
   11.0853    4.2285    7.3550 S   0  0  0  0  0  0  0  0  0  0  0  0
   12.6519    4.5328    7.9380 C   0  0  0  0  0  0  0  0  0  0  0  0
   10.9125    6.1332   10.3067 H   0  0  0  0  0  0  0  0  0  0  0  0
    9.0950    5.1618    8.6682 H   0  0  0  0  0  0  0  0  0  0  0  0
   13.6292    4.2527    7.5705 H   0  0  0  0  0  0  0  0  0  0  0  0
  1  3  2  0
  1  4  1  0
  1  5  1  0
  2  4  1  0
  2  6  1  0
  4  9  1  0
  4 15  1  0
  5  6  1  0
  5  8  1  0
  6  7  2  3
  9 10  2  0
  9 14  1  0
 10 11  1  0
 11 12  2  0
 12 13  1  0
 13 14  2  0
 15 16  2  0
 15 20  1  0
 16 17  1  0
 17 18  2  0
 18 19  1  0
 19 20  2  0
  2 21  1  0
  7 22  1  0
  8 23  1  0
  8 24  1  0
  8 25  1  0
 10 26  1  0
 11 27  1  0
 12 28  1  0
 13 29  1  0
 14 30  1  0
 16 31  1  0
 17 32  1  0
 19 33  1  0
 20 34  1  0
 35 36  1  0
 36 37  2  0
 37 38  1  0
 38 39  1  0
 39 35  2  0
 36 40  1  0
 37 41  1  0
 39 42  1  0
 18 35  1  0
M  END
>  <attachment_point>  (114) 
32

>  <score>  (114) 
<NA>

$$$$
4djw
     RDKit          3D

 48 51  0  0  0  0  0  0  0  0999 V2000
   22.4950   11.8750   22.5810 C   0  0  0  0  0  0  0  0  0  0  0  0
   22.5380    9.4930   22.4640 N   0  0  0  0  0  0  0  0  0  0  0  0
   22.3600   13.0630   22.3480 O   0  0  0  0  0  0  0  0  0  0  0  0
   22.3390   10.6680   21.5610 C   0  0  0  0  0  0  0  0  0  0  0  0
   22.7860   11.3350   23.8120 N   0  0  0  0  0  0  0  0  0  0  0  0
   22.7800    9.9140   23.7010 C   0  0  0  0  0  0  0  0  0  0  0  0
   22.9970    9.1110   24.7490 N   0  0  0  0  0  0  0  0  0  0  0  0
   23.0220   12.1410   25.0180 C   0  0  0  0  0  0  0  0  0  0  0  0
   20.9020   10.6270   21.0050 C   0  0  0  0  0  0  0  0  0  0  0  0
   20.2720    9.4140   20.7470 C   0  0  0  0  0  0  0  0  0  0  0  0
   18.9690    9.3760   20.2600 C   0  0  0  0  0  0  0  0  0  0  0  0
   18.2800   10.5440   20.0210 C   0  0  0  0  0  0  0  0  0  0  0  0
   18.8920   11.7530   20.2590 C   0  0  0  0  0  0  0  0  0  0  0  0
   20.1950   11.7970   20.7440 C   0  0  0  0  0  0  0  0  0  0  0  0
   23.4880   10.6920   20.5300 C   0  0  0  0  0  0  0  0  0  0  0  0
   23.2110   10.7890   19.1730 C   0  0  0  0  0  0  0  0  0  0  0  0
   24.2350   10.8650   18.2430 C   0  0  0  0  0  0  0  0  0  0  0  0
   25.5500   10.8410   18.6560 C   0  0  0  0  0  0  0  0  0  0  0  0
   25.8710   10.7460   20.0070 C   0  0  0  0  0  0  0  0  0  0  0  0
   24.8260   10.6610   20.9430 C   0  0  0  0  0  0  0  0  0  0  0  0
    0.0000    0.0000    0.0000 H   0  0  0  0  0  0  0  0  0  0  0  0
    0.0000    0.0000    0.0000 H   0  0  0  0  0  0  0  0  0  0  0  0
    0.0000    0.0000    0.0000 H   0  0  0  0  0  0  0  0  0  0  0  0
    0.0000    0.0000    0.0000 H   0  0  0  0  0  0  0  0  0  0  0  0
    0.0000    0.0000    0.0000 H   0  0  0  0  0  0  0  0  0  0  0  0
    0.0000    0.0000    0.0000 H   0  0  0  0  0  0  0  0  0  0  0  0
    0.0000    0.0000    0.0000 H   0  0  0  0  0  0  0  0  0  0  0  0
    0.0000    0.0000    0.0000 H   0  0  0  0  0  0  0  0  0  0  0  0
    0.0000    0.0000    0.0000 H   0  0  0  0  0  0  0  0  0  0  0  0
    0.0000    0.0000    0.0000 H   0  0  0  0  0  0  0  0  0  0  0  0
    0.0000    0.0000    0.0000 H   0  0  0  0  0  0  0  0  0  0  0  0
    0.0000    0.0000    0.0000 H   0  0  0  0  0  0  0  0  0  0  0  0
    0.0000    0.0000    0.0000 H   0  0  0  0  0  0  0  0  0  0  0  0
    0.0000    0.0000    0.0000 H   0  0  0  0  0  0  0  0  0  0  0  0
   12.4171    5.2687    9.0667 C   0  0  0  0  0  0  0  0  0  0  0  0
   11.3969    4.7057    9.7669 C   0  0  0  0  0  0  0  0  0  0  0  0
   10.3287    4.2520    8.9921 C   0  0  0  0  0  0  0  0  0  0  0  0
   10.2983    4.3605    7.6222 C   0  0  0  0  0  0  0  0  0  0  0  0
    9.1488    3.8648    6.8725 C   0  0  0  0  0  0  0  0  0  0  0  0
    8.2092    3.3463    7.5161 O   0  0  0  0  0  0  0  0  0  0  0  0
    9.0391    3.9349    5.4969 O   0  0  0  0  0  0  0  0  0  0  0  0
   11.3674    4.9432    6.9691 C   0  0  0  0  0  0  0  0  0  0  0  0
   12.4568    5.4104    7.7086 C   0  0  0  0  0  0  0  0  0  0  0  0
   11.4018    4.6119   10.8347 H   0  0  0  0  0  0  0  0  0  0  0  0
    9.4843    3.7939    9.4842 H   0  0  0  0  0  0  0  0  0  0  0  0
    8.5380    3.2201    4.9481 H   0  0  0  0  0  0  0  0  0  0  0  0
   11.3312    5.0219    5.8980 H   0  0  0  0  0  0  0  0  0  0  0  0
   13.3022    5.8714    7.1902 H   0  0  0  0  0  0  0  0  0  0  0  0
  1  3  2  0
  1  4  1  0
  1  5  1  0
  2  4  1  0
  2  6  1  0
  4  9  1  0
  4 15  1  0
  5  6  1  0
  5  8  1  0
  6  7  2  3
  9 10  2  0
  9 14  1  0
 10 11  1  0
 11 12  2  0
 12 13  1  0
 13 14  2  0
 15 16  2  0
 15 20  1  0
 16 17  1  0
 17 18  2  0
 18 19  1  0
 19 20  2  0
  2 21  1  0
  7 22  1  0
  8 23  1  0
  8 24  1  0
  8 25  1  0
 10 26  1  0
 11 27  1  0
 12 28  1  0
 13 29  1  0
 14 30  1  0
 16 31  1  0
 17 32  1  0
 19 33  1  0
 20 34  1  0
 35 36  2  0
 36 37  1  0
 37 38  2  0
 38 39  1  0
 39 40  2  0
 39 41  1  0
 38 42  1  0
 42 43  2  0
 43 35  1  0
 36 44  1  0
 37 45  1  0
 41 46  1  0
 42 47  1  0
 43 48  1  0
 18 35  1  0
M  END
>  <attachment_point>  (115) 
32

>  <score>  (115) 
<NA>

$$$$
4djw
     RDKit          3D

 39 41  0  0  0  0  0  0  0  0999 V2000
   22.4950   11.8750   22.5810 C   0  0  0  0  0  0  0  0  0  0  0  0
   22.5380    9.4930   22.4640 N   0  0  0  0  0  0  0  0  0  0  0  0
   22.3600   13.0630   22.3480 O   0  0  0  0  0  0  0  0  0  0  0  0
   22.3390   10.6680   21.5610 C   0  0  0  0  0  0  0  0  0  0  0  0
   22.7860   11.3350   23.8120 N   0  0  0  0  0  0  0  0  0  0  0  0
   22.7800    9.9140   23.7010 C   0  0  0  0  0  0  0  0  0  0  0  0
   22.9970    9.1110   24.7490 N   0  0  0  0  0  0  0  0  0  0  0  0
   23.0220   12.1410   25.0180 C   0  0  0  0  0  0  0  0  0  0  0  0
   20.9020   10.6270   21.0050 C   0  0  0  0  0  0  0  0  0  0  0  0
   20.2720    9.4140   20.7470 C   0  0  0  0  0  0  0  0  0  0  0  0
   18.9690    9.3760   20.2600 C   0  0  0  0  0  0  0  0  0  0  0  0
   18.2800   10.5440   20.0210 C   0  0  0  0  0  0  0  0  0  0  0  0
   18.8920   11.7530   20.2590 C   0  0  0  0  0  0  0  0  0  0  0  0
   20.1950   11.7970   20.7440 C   0  0  0  0  0  0  0  0  0  0  0  0
   23.4880   10.6920   20.5300 C   0  0  0  0  0  0  0  0  0  0  0  0
   23.2110   10.7890   19.1730 C   0  0  0  0  0  0  0  0  0  0  0  0
   24.2350   10.8650   18.2430 C   0  0  0  0  0  0  0  0  0  0  0  0
   25.5500   10.8410   18.6560 C   0  0  0  0  0  0  0  0  0  0  0  0
   25.8710   10.7460   20.0070 C   0  0  0  0  0  0  0  0  0  0  0  0
   24.8260   10.6610   20.9430 C   0  0  0  0  0  0  0  0  0  0  0  0
    0.0000    0.0000    0.0000 H   0  0  0  0  0  0  0  0  0  0  0  0
    0.0000    0.0000    0.0000 H   0  0  0  0  0  0  0  0  0  0  0  0
    0.0000    0.0000    0.0000 H   0  0  0  0  0  0  0  0  0  0  0  0
    0.0000    0.0000    0.0000 H   0  0  0  0  0  0  0  0  0  0  0  0
    0.0000    0.0000    0.0000 H   0  0  0  0  0  0  0  0  0  0  0  0
    0.0000    0.0000    0.0000 H   0  0  0  0  0  0  0  0  0  0  0  0
    0.0000    0.0000    0.0000 H   0  0  0  0  0  0  0  0  0  0  0  0
    0.0000    0.0000    0.0000 H   0  0  0  0  0  0  0  0  0  0  0  0
    0.0000    0.0000    0.0000 H   0  0  0  0  0  0  0  0  0  0  0  0
    0.0000    0.0000    0.0000 H   0  0  0  0  0  0  0  0  0  0  0  0
    0.0000    0.0000    0.0000 H   0  0  0  0  0  0  0  0  0  0  0  0
    0.0000    0.0000    0.0000 H   0  0  0  0  0  0  0  0  0  0  0  0
    0.0000    0.0000    0.0000 H   0  0  0  0  0  0  0  0  0  0  0  0
    0.0000    0.0000    0.0000 H   0  0  0  0  0  0  0  0  0  0  0  0
   12.3841    5.2546    9.0426 B   0  0  0  0  0  0  0  0  0  0  0  0
   12.7736    4.9733    7.6544 O   0  0  0  0  0  0  0  0  0  0  0  0
   11.2732    6.1897    9.2226 O   0  0  0  0  0  0  0  0  0  0  0  0
   12.6358    5.7790    7.1169 H   0  0  0  0  0  0  0  0  0  0  0  0
   10.5606    5.6805    9.6936 H   0  0  0  0  0  0  0  0  0  0  0  0
  1  3  2  0
  1  4  1  0
  1  5  1  0
  2  4  1  0
  2  6  1  0
  4  9  1  0
  4 15  1  0
  5  6  1  0
  5  8  1  0
  6  7  2  3
  9 10  2  0
  9 14  1  0
 10 11  1  0
 11 12  2  0
 12 13  1  0
 13 14  2  0
 15 16  2  0
 15 20  1  0
 16 17  1  0
 17 18  2  0
 18 19  1  0
 19 20  2  0
  2 21  1  0
  7 22  1  0
  8 23  1  0
  8 24  1  0
  8 25  1  0
 10 26  1  0
 11 27  1  0
 12 28  1  0
 13 29  1  0
 14 30  1  0
 16 31  1  0
 17 32  1  0
 19 33  1  0
 20 34  1  0
 35 36  1  0
 35 37  1  0
 36 38  1  0
 37 39  1  0
 18 35  1  0
M  END
>  <attachment_point>  (116) 
32

>  <score>  (116) 
<NA>

$$$$
4djw
     RDKit          3D

 42 44  0  0  0  0  0  0  0  0999 V2000
   22.4950   11.8750   22.5810 C   0  0  0  0  0  0  0  0  0  0  0  0
   22.5380    9.4930   22.4640 N   0  0  0  0  0  0  0  0  0  0  0  0
   22.3600   13.0630   22.3480 O   0  0  0  0  0  0  0  0  0  0  0  0
   22.3390   10.6680   21.5610 C   0  0  0  0  0  0  0  0  0  0  0  0
   22.7860   11.3350   23.8120 N   0  0  0  0  0  0  0  0  0  0  0  0
   22.7800    9.9140   23.7010 C   0  0  0  0  0  0  0  0  0  0  0  0
   22.9970    9.1110   24.7490 N   0  0  0  0  0  0  0  0  0  0  0  0
   23.0220   12.1410   25.0180 C   0  0  0  0  0  0  0  0  0  0  0  0
   20.9020   10.6270   21.0050 C   0  0  0  0  0  0  0  0  0  0  0  0
   20.2720    9.4140   20.7470 C   0  0  0  0  0  0  0  0  0  0  0  0
   18.9690    9.3760   20.2600 C   0  0  0  0  0  0  0  0  0  0  0  0
   18.2800   10.5440   20.0210 C   0  0  0  0  0  0  0  0  0  0  0  0
   18.8920   11.7530   20.2590 C   0  0  0  0  0  0  0  0  0  0  0  0
   20.1950   11.7970   20.7440 C   0  0  0  0  0  0  0  0  0  0  0  0
   23.4880   10.6920   20.5300 C   0  0  0  0  0  0  0  0  0  0  0  0
   23.2110   10.7890   19.1730 C   0  0  0  0  0  0  0  0  0  0  0  0
   24.2350   10.8650   18.2430 C   0  0  0  0  0  0  0  0  0  0  0  0
   25.5500   10.8410   18.6560 C   0  0  0  0  0  0  0  0  0  0  0  0
   25.8710   10.7460   20.0070 C   0  0  0  0  0  0  0  0  0  0  0  0
   24.8260   10.6610   20.9430 C   0  0  0  0  0  0  0  0  0  0  0  0
    0.0000    0.0000    0.0000 H   0  0  0  0  0  0  0  0  0  0  0  0
    0.0000    0.0000    0.0000 H   0  0  0  0  0  0  0  0  0  0  0  0
    0.0000    0.0000    0.0000 H   0  0  0  0  0  0  0  0  0  0  0  0
    0.0000    0.0000    0.0000 H   0  0  0  0  0  0  0  0  0  0  0  0
    0.0000    0.0000    0.0000 H   0  0  0  0  0  0  0  0  0  0  0  0
    0.0000    0.0000    0.0000 H   0  0  0  0  0  0  0  0  0  0  0  0
    0.0000    0.0000    0.0000 H   0  0  0  0  0  0  0  0  0  0  0  0
    0.0000    0.0000    0.0000 H   0  0  0  0  0  0  0  0  0  0  0  0
    0.0000    0.0000    0.0000 H   0  0  0  0  0  0  0  0  0  0  0  0
    0.0000    0.0000    0.0000 H   0  0  0  0  0  0  0  0  0  0  0  0
    0.0000    0.0000    0.0000 H   0  0  0  0  0  0  0  0  0  0  0  0
    0.0000    0.0000    0.0000 H   0  0  0  0  0  0  0  0  0  0  0  0
    0.0000    0.0000    0.0000 H   0  0  0  0  0  0  0  0  0  0  0  0
    0.0000    0.0000    0.0000 H   0  0  0  0  0  0  0  0  0  0  0  0
   12.5455    5.3231    9.1604 O   0  0  0  0  0  0  0  0  0  0  0  0
   11.4418    6.1104    8.8929 C   0  0  0  0  0  0  0  0  0  0  0  0
   10.4463    5.4166    8.0497 C   0  0  0  0  0  0  0  0  0  0  0  0
   10.6081    4.2501    7.6384 O   0  0  0  0  0  0  0  0  0  0  0  0
    9.2873    6.0902    7.7031 O   0  0  0  0  0  0  0  0  0  0  0  0
   11.0049    6.4042    9.8567 H   0  0  0  0  0  0  0  0  0  0  0  0
   11.8206    7.0530    8.4063 H   0  0  0  0  0  0  0  0  0  0  0  0
    8.4065    5.6158    7.5590 H   0  0  0  0  0  0  0  0  0  0  0  0
  1  3  2  0
  1  4  1  0
  1  5  1  0
  2  4  1  0
  2  6  1  0
  4  9  1  0
  4 15  1  0
  5  6  1  0
  5  8  1  0
  6  7  2  3
  9 10  2  0
  9 14  1  0
 10 11  1  0
 11 12  2  0
 12 13  1  0
 13 14  2  0
 15 16  2  0
 15 20  1  0
 16 17  1  0
 17 18  2  0
 18 19  1  0
 19 20  2  0
  2 21  1  0
  7 22  1  0
  8 23  1  0
  8 24  1  0
  8 25  1  0
 10 26  1  0
 11 27  1  0
 12 28  1  0
 13 29  1  0
 14 30  1  0
 16 31  1  0
 17 32  1  0
 19 33  1  0
 20 34  1  0
 35 36  1  0
 36 37  1  0
 37 38  2  0
 37 39  1  0
 36 40  1  0
 36 41  1  0
 39 42  1  0
 18 35  1  0
M  END
>  <attachment_point>  (117) 
32

>  <score>  (117) 
<NA>

$$$$
4djw
     RDKit          3D

 39 41  0  0  0  0  0  0  0  0999 V2000
   22.4950   11.8750   22.5810 C   0  0  0  0  0  0  0  0  0  0  0  0
   22.5380    9.4930   22.4640 N   0  0  0  0  0  0  0  0  0  0  0  0
   22.3600   13.0630   22.3480 O   0  0  0  0  0  0  0  0  0  0  0  0
   22.3390   10.6680   21.5610 C   0  0  0  0  0  0  0  0  0  0  0  0
   22.7860   11.3350   23.8120 N   0  0  0  0  0  0  0  0  0  0  0  0
   22.7800    9.9140   23.7010 C   0  0  0  0  0  0  0  0  0  0  0  0
   22.9970    9.1110   24.7490 N   0  0  0  0  0  0  0  0  0  0  0  0
   23.0220   12.1410   25.0180 C   0  0  0  0  0  0  0  0  0  0  0  0
   20.9020   10.6270   21.0050 C   0  0  0  0  0  0  0  0  0  0  0  0
   20.2720    9.4140   20.7470 C   0  0  0  0  0  0  0  0  0  0  0  0
   18.9690    9.3760   20.2600 C   0  0  0  0  0  0  0  0  0  0  0  0
   18.2800   10.5440   20.0210 C   0  0  0  0  0  0  0  0  0  0  0  0
   18.8920   11.7530   20.2590 C   0  0  0  0  0  0  0  0  0  0  0  0
   20.1950   11.7970   20.7440 C   0  0  0  0  0  0  0  0  0  0  0  0
   23.4880   10.6920   20.5300 C   0  0  0  0  0  0  0  0  0  0  0  0
   23.2110   10.7890   19.1730 C   0  0  0  0  0  0  0  0  0  0  0  0
   24.2350   10.8650   18.2430 C   0  0  0  0  0  0  0  0  0  0  0  0
   25.5500   10.8410   18.6560 C   0  0  0  0  0  0  0  0  0  0  0  0
   25.8710   10.7460   20.0070 C   0  0  0  0  0  0  0  0  0  0  0  0
   24.8260   10.6610   20.9430 C   0  0  0  0  0  0  0  0  0  0  0  0
    0.0000    0.0000    0.0000 H   0  0  0  0  0  0  0  0  0  0  0  0
    0.0000    0.0000    0.0000 H   0  0  0  0  0  0  0  0  0  0  0  0
    0.0000    0.0000    0.0000 H   0  0  0  0  0  0  0  0  0  0  0  0
    0.0000    0.0000    0.0000 H   0  0  0  0  0  0  0  0  0  0  0  0
    0.0000    0.0000    0.0000 H   0  0  0  0  0  0  0  0  0  0  0  0
    0.0000    0.0000    0.0000 H   0  0  0  0  0  0  0  0  0  0  0  0
    0.0000    0.0000    0.0000 H   0  0  0  0  0  0  0  0  0  0  0  0
    0.0000    0.0000    0.0000 H   0  0  0  0  0  0  0  0  0  0  0  0
    0.0000    0.0000    0.0000 H   0  0  0  0  0  0  0  0  0  0  0  0
    0.0000    0.0000    0.0000 H   0  0  0  0  0  0  0  0  0  0  0  0
    0.0000    0.0000    0.0000 H   0  0  0  0  0  0  0  0  0  0  0  0
    0.0000    0.0000    0.0000 H   0  0  0  0  0  0  0  0  0  0  0  0
    0.0000    0.0000    0.0000 H   0  0  0  0  0  0  0  0  0  0  0  0
    0.0000    0.0000    0.0000 H   0  0  0  0  0  0  0  0  0  0  0  0
   12.4658    5.2893    9.1023 C   0  0  0  0  0  0  0  0  0  0  0  0
   11.2112    5.4000    9.5225 C   0  0  0  0  0  0  0  0  0  0  0  0
   12.6474    4.8358    8.1326 H   0  0  0  0  0  0  0  0  0  0  0  0
   11.0001    5.8487   10.4866 H   0  0  0  0  0  0  0  0  0  0  0  0
   10.3833    5.0486    8.9177 H   0  0  0  0  0  0  0  0  0  0  0  0
  1  3  2  0
  1  4  1  0
  1  5  1  0
  2  4  1  0
  2  6  1  0
  4  9  1  0
  4 15  1  0
  5  6  1  0
  5  8  1  0
  6  7  2  3
  9 10  2  0
  9 14  1  0
 10 11  1  0
 11 12  2  0
 12 13  1  0
 13 14  2  0
 15 16  2  0
 15 20  1  0
 16 17  1  0
 17 18  2  0
 18 19  1  0
 19 20  2  0
  2 21  1  0
  7 22  1  0
  8 23  1  0
  8 24  1  0
  8 25  1  0
 10 26  1  0
 11 27  1  0
 12 28  1  0
 13 29  1  0
 14 30  1  0
 16 31  1  0
 17 32  1  0
 19 33  1  0
 20 34  1  0
 35 36  2  3
 35 37  1  0
 36 38  1  0
 36 39  1  0
 18 35  1  0
M  END
>  <attachment_point>  (118) 
32

>  <score>  (118) 
<NA>

$$$$
4djw
     RDKit          3D

 52 55  0  0  0  0  0  0  0  0999 V2000
   22.4950   11.8750   22.5810 C   0  0  0  0  0  0  0  0  0  0  0  0
   22.5380    9.4930   22.4640 N   0  0  0  0  0  0  0  0  0  0  0  0
   22.3600   13.0630   22.3480 O   0  0  0  0  0  0  0  0  0  0  0  0
   22.3390   10.6680   21.5610 C   0  0  0  0  0  0  0  0  0  0  0  0
   22.7860   11.3350   23.8120 N   0  0  0  0  0  0  0  0  0  0  0  0
   22.7800    9.9140   23.7010 C   0  0  0  0  0  0  0  0  0  0  0  0
   22.9970    9.1110   24.7490 N   0  0  0  0  0  0  0  0  0  0  0  0
   23.0220   12.1410   25.0180 C   0  0  0  0  0  0  0  0  0  0  0  0
   20.9020   10.6270   21.0050 C   0  0  0  0  0  0  0  0  0  0  0  0
   20.2720    9.4140   20.7470 C   0  0  0  0  0  0  0  0  0  0  0  0
   18.9690    9.3760   20.2600 C   0  0  0  0  0  0  0  0  0  0  0  0
   18.2800   10.5440   20.0210 C   0  0  0  0  0  0  0  0  0  0  0  0
   18.8920   11.7530   20.2590 C   0  0  0  0  0  0  0  0  0  0  0  0
   20.1950   11.7970   20.7440 C   0  0  0  0  0  0  0  0  0  0  0  0
   23.4880   10.6920   20.5300 C   0  0  0  0  0  0  0  0  0  0  0  0
   23.2110   10.7890   19.1730 C   0  0  0  0  0  0  0  0  0  0  0  0
   24.2350   10.8650   18.2430 C   0  0  0  0  0  0  0  0  0  0  0  0
   25.5500   10.8410   18.6560 C   0  0  0  0  0  0  0  0  0  0  0  0
   25.8710   10.7460   20.0070 C   0  0  0  0  0  0  0  0  0  0  0  0
   24.8260   10.6610   20.9430 C   0  0  0  0  0  0  0  0  0  0  0  0
    0.0000    0.0000    0.0000 H   0  0  0  0  0  0  0  0  0  0  0  0
    0.0000    0.0000    0.0000 H   0  0  0  0  0  0  0  0  0  0  0  0
    0.0000    0.0000    0.0000 H   0  0  0  0  0  0  0  0  0  0  0  0
    0.0000    0.0000    0.0000 H   0  0  0  0  0  0  0  0  0  0  0  0
    0.0000    0.0000    0.0000 H   0  0  0  0  0  0  0  0  0  0  0  0
    0.0000    0.0000    0.0000 H   0  0  0  0  0  0  0  0  0  0  0  0
    0.0000    0.0000    0.0000 H   0  0  0  0  0  0  0  0  0  0  0  0
    0.0000    0.0000    0.0000 H   0  0  0  0  0  0  0  0  0  0  0  0
    0.0000    0.0000    0.0000 H   0  0  0  0  0  0  0  0  0  0  0  0
    0.0000    0.0000    0.0000 H   0  0  0  0  0  0  0  0  0  0  0  0
    0.0000    0.0000    0.0000 H   0  0  0  0  0  0  0  0  0  0  0  0
    0.0000    0.0000    0.0000 H   0  0  0  0  0  0  0  0  0  0  0  0
    0.0000    0.0000    0.0000 H   0  0  0  0  0  0  0  0  0  0  0  0
    0.0000    0.0000    0.0000 H   0  0  0  0  0  0  0  0  0  0  0  0
   12.3489    5.2397    9.0169 C   0  0  0  0  0  0  0  0  0  0  0  0
   11.6648    6.1477    8.6564 O   0  0  0  0  0  0  0  0  0  0  0  0
   12.3919    3.8737    8.8876 N   0  0  0  0  0  0  0  0  0  0  0  0
   13.4410    3.0981    9.5121 C   0  0  0  0  0  0  0  0  0  0  0  0
   12.9050    1.8316   10.1336 C   0  0  0  0  0  0  0  0  0  0  0  0
   12.2272    0.9770    9.1150 C   0  0  0  0  0  0  0  0  0  0  0  0
   11.7783    1.7150    7.8948 C   0  0  0  0  0  0  0  0  0  0  0  0
   11.4166    3.1523    8.1396 C   0  0  0  0  0  0  0  0  0  0  0  0
   14.1381    2.8037    8.7039 H   0  0  0  0  0  0  0  0  0  0  0  0
   13.9552    3.6758   10.3040 H   0  0  0  0  0  0  0  0  0  0  0  0
   13.7899    1.2783   10.5367 H   0  0  0  0  0  0  0  0  0  0  0  0
   12.2466    2.0393   11.0033 H   0  0  0  0  0  0  0  0  0  0  0  0
   12.8942    0.1479    8.7890 H   0  0  0  0  0  0  0  0  0  0  0  0
   11.3514    0.4676    9.6060 H   0  0  0  0  0  0  0  0  0  0  0  0
   12.5971    1.6662    7.1345 H   0  0  0  0  0  0  0  0  0  0  0  0
   10.8686    1.2089    7.5103 H   0  0  0  0  0  0  0  0  0  0  0  0
   10.3934    3.1824    8.5641 H   0  0  0  0  0  0  0  0  0  0  0  0
   11.3388    3.6286    7.1167 H   0  0  0  0  0  0  0  0  0  0  0  0
  1  3  2  0
  1  4  1  0
  1  5  1  0
  2  4  1  0
  2  6  1  0
  4  9  1  0
  4 15  1  0
  5  6  1  0
  5  8  1  0
  6  7  2  3
  9 10  2  0
  9 14  1  0
 10 11  1  0
 11 12  2  0
 12 13  1  0
 13 14  2  0
 15 16  2  0
 15 20  1  0
 16 17  1  0
 17 18  2  0
 18 19  1  0
 19 20  2  0
  2 21  1  0
  7 22  1  0
  8 23  1  0
  8 24  1  0
  8 25  1  0
 10 26  1  0
 11 27  1  0
 12 28  1  0
 13 29  1  0
 14 30  1  0
 16 31  1  0
 17 32  1  0
 19 33  1  0
 20 34  1  0
 35 36  2  0
 35 37  1  0
 37 38  1  0
 38 39  1  0
 39 40  1  0
 40 41  1  0
 41 42  1  0
 42 37  1  0
 38 43  1  0
 38 44  1  0
 39 45  1  0
 39 46  1  0
 40 47  1  0
 40 48  1  0
 41 49  1  0
 41 50  1  0
 42 51  1  0
 42 52  1  0
 18 35  1  0
M  END
>  <attachment_point>  (119) 
32

>  <score>  (119) 
<NA>

$$$$
4djw
     RDKit          3D

 49 52  0  0  0  0  0  0  0  0999 V2000
   22.4950   11.8750   22.5810 C   0  0  0  0  0  0  0  0  0  0  0  0
   22.5380    9.4930   22.4640 N   0  0  0  0  0  0  0  0  0  0  0  0
   22.3600   13.0630   22.3480 O   0  0  0  0  0  0  0  0  0  0  0  0
   22.3390   10.6680   21.5610 C   0  0  0  0  0  0  0  0  0  0  0  0
   22.7860   11.3350   23.8120 N   0  0  0  0  0  0  0  0  0  0  0  0
   22.7800    9.9140   23.7010 C   0  0  0  0  0  0  0  0  0  0  0  0
   22.9970    9.1110   24.7490 N   0  0  0  0  0  0  0  0  0  0  0  0
   23.0220   12.1410   25.0180 C   0  0  0  0  0  0  0  0  0  0  0  0
   20.9020   10.6270   21.0050 C   0  0  0  0  0  0  0  0  0  0  0  0
   20.2720    9.4140   20.7470 C   0  0  0  0  0  0  0  0  0  0  0  0
   18.9690    9.3760   20.2600 C   0  0  0  0  0  0  0  0  0  0  0  0
   18.2800   10.5440   20.0210 C   0  0  0  0  0  0  0  0  0  0  0  0
   18.8920   11.7530   20.2590 C   0  0  0  0  0  0  0  0  0  0  0  0
   20.1950   11.7970   20.7440 C   0  0  0  0  0  0  0  0  0  0  0  0
   23.4880   10.6920   20.5300 C   0  0  0  0  0  0  0  0  0  0  0  0
   23.2110   10.7890   19.1730 C   0  0  0  0  0  0  0  0  0  0  0  0
   24.2350   10.8650   18.2430 C   0  0  0  0  0  0  0  0  0  0  0  0
   25.5500   10.8410   18.6560 C   0  0  0  0  0  0  0  0  0  0  0  0
   25.8710   10.7460   20.0070 C   0  0  0  0  0  0  0  0  0  0  0  0
   24.8260   10.6610   20.9430 C   0  0  0  0  0  0  0  0  0  0  0  0
    0.0000    0.0000    0.0000 H   0  0  0  0  0  0  0  0  0  0  0  0
    0.0000    0.0000    0.0000 H   0  0  0  0  0  0  0  0  0  0  0  0
    0.0000    0.0000    0.0000 H   0  0  0  0  0  0  0  0  0  0  0  0
    0.0000    0.0000    0.0000 H   0  0  0  0  0  0  0  0  0  0  0  0
    0.0000    0.0000    0.0000 H   0  0  0  0  0  0  0  0  0  0  0  0
    0.0000    0.0000    0.0000 H   0  0  0  0  0  0  0  0  0  0  0  0
    0.0000    0.0000    0.0000 H   0  0  0  0  0  0  0  0  0  0  0  0
    0.0000    0.0000    0.0000 H   0  0  0  0  0  0  0  0  0  0  0  0
    0.0000    0.0000    0.0000 H   0  0  0  0  0  0  0  0  0  0  0  0
    0.0000    0.0000    0.0000 H   0  0  0  0  0  0  0  0  0  0  0  0
    0.0000    0.0000    0.0000 H   0  0  0  0  0  0  0  0  0  0  0  0
    0.0000    0.0000    0.0000 H   0  0  0  0  0  0  0  0  0  0  0  0
    0.0000    0.0000    0.0000 H   0  0  0  0  0  0  0  0  0  0  0  0
    0.0000    0.0000    0.0000 H   0  0  0  0  0  0  0  0  0  0  0  0
   12.3433    5.2373    9.0128 C   0  0  0  0  0  0  0  0  0  0  0  0
   11.4233    4.7937    9.7677 C   0  0  0  0  0  0  0  0  0  0  0  0
   11.5206    4.7827   11.2468 C   0  0  0  0  0  0  0  0  0  0  0  0
   10.5017    4.2932   12.0311 C   0  0  0  0  0  0  0  0  0  0  0  0
   10.5761    4.2756   13.4072 C   0  0  0  0  0  0  0  0  0  0  0  0
   11.6930    4.7559   14.0534 C   0  0  0  0  0  0  0  0  0  0  0  0
   12.7226    5.2496   13.2804 C   0  0  0  0  0  0  0  0  0  0  0  0
   12.6399    5.2642   11.8871 C   0  0  0  0  0  0  0  0  0  0  0  0
   12.6093    5.3933    8.0515 H   0  0  0  0  0  0  0  0  0  0  0  0
   10.5207    4.4040    9.2906 H   0  0  0  0  0  0  0  0  0  0  0  0
    9.6231    3.9156   11.5185 H   0  0  0  0  0  0  0  0  0  0  0  0
    9.7637    3.8860   14.0179 H   0  0  0  0  0  0  0  0  0  0  0  0
   11.7380    4.7358   15.1362 H   0  0  0  0  0  0  0  0  0  0  0  0
   13.5938    5.6240   13.7904 H   0  0  0  0  0  0  0  0  0  0  0  0
   13.4622    5.6579   11.2872 H   0  0  0  0  0  0  0  0  0  0  0  0
  1  3  2  0
  1  4  1  0
  1  5  1  0
  2  4  1  0
  2  6  1  0
  4  9  1  0
  4 15  1  0
  5  6  1  0
  5  8  1  0
  6  7  2  3
  9 10  2  0
  9 14  1  0
 10 11  1  0
 11 12  2  0
 12 13  1  0
 13 14  2  0
 15 16  2  0
 15 20  1  0
 16 17  1  0
 17 18  2  0
 18 19  1  0
 19 20  2  0
  2 21  1  0
  7 22  1  0
  8 23  1  0
  8 24  1  0
  8 25  1  0
 10 26  1  0
 11 27  1  0
 12 28  1  0
 13 29  1  0
 14 30  1  0
 16 31  1  0
 17 32  1  0
 19 33  1  0
 20 34  1  0
 35 36  2  3
 36 37  1  0
 37 38  2  0
 38 39  1  0
 39 40  2  0
 40 41  1  0
 41 42  2  0
 42 37  1  0
 35 43  1  0
 36 44  1  0
 38 45  1  0
 39 46  1  0
 40 47  1  0
 41 48  1  0
 42 49  1  0
 18 35  1  0
M  END
>  <attachment_point>  (120) 
32

>  <score>  (120) 
<NA>

$$$$
4djw
     RDKit          3D

 48 51  0  0  0  0  0  0  0  0999 V2000
   22.4950   11.8750   22.5810 C   0  0  0  0  0  0  0  0  0  0  0  0
   22.5380    9.4930   22.4640 N   0  0  0  0  0  0  0  0  0  0  0  0
   22.3600   13.0630   22.3480 O   0  0  0  0  0  0  0  0  0  0  0  0
   22.3390   10.6680   21.5610 C   0  0  0  0  0  0  0  0  0  0  0  0
   22.7860   11.3350   23.8120 N   0  0  0  0  0  0  0  0  0  0  0  0
   22.7800    9.9140   23.7010 C   0  0  0  0  0  0  0  0  0  0  0  0
   22.9970    9.1110   24.7490 N   0  0  0  0  0  0  0  0  0  0  0  0
   23.0220   12.1410   25.0180 C   0  0  0  0  0  0  0  0  0  0  0  0
   20.9020   10.6270   21.0050 C   0  0  0  0  0  0  0  0  0  0  0  0
   20.2720    9.4140   20.7470 C   0  0  0  0  0  0  0  0  0  0  0  0
   18.9690    9.3760   20.2600 C   0  0  0  0  0  0  0  0  0  0  0  0
   18.2800   10.5440   20.0210 C   0  0  0  0  0  0  0  0  0  0  0  0
   18.8920   11.7530   20.2590 C   0  0  0  0  0  0  0  0  0  0  0  0
   20.1950   11.7970   20.7440 C   0  0  0  0  0  0  0  0  0  0  0  0
   23.4880   10.6920   20.5300 C   0  0  0  0  0  0  0  0  0  0  0  0
   23.2110   10.7890   19.1730 C   0  0  0  0  0  0  0  0  0  0  0  0
   24.2350   10.8650   18.2430 C   0  0  0  0  0  0  0  0  0  0  0  0
   25.5500   10.8410   18.6560 C   0  0  0  0  0  0  0  0  0  0  0  0
   25.8710   10.7460   20.0070 C   0  0  0  0  0  0  0  0  0  0  0  0
   24.8260   10.6610   20.9430 C   0  0  0  0  0  0  0  0  0  0  0  0
    0.0000    0.0000    0.0000 H   0  0  0  0  0  0  0  0  0  0  0  0
    0.0000    0.0000    0.0000 H   0  0  0  0  0  0  0  0  0  0  0  0
    0.0000    0.0000    0.0000 H   0  0  0  0  0  0  0  0  0  0  0  0
    0.0000    0.0000    0.0000 H   0  0  0  0  0  0  0  0  0  0  0  0
    0.0000    0.0000    0.0000 H   0  0  0  0  0  0  0  0  0  0  0  0
    0.0000    0.0000    0.0000 H   0  0  0  0  0  0  0  0  0  0  0  0
    0.0000    0.0000    0.0000 H   0  0  0  0  0  0  0  0  0  0  0  0
    0.0000    0.0000    0.0000 H   0  0  0  0  0  0  0  0  0  0  0  0
    0.0000    0.0000    0.0000 H   0  0  0  0  0  0  0  0  0  0  0  0
    0.0000    0.0000    0.0000 H   0  0  0  0  0  0  0  0  0  0  0  0
    0.0000    0.0000    0.0000 H   0  0  0  0  0  0  0  0  0  0  0  0
    0.0000    0.0000    0.0000 H   0  0  0  0  0  0  0  0  0  0  0  0
    0.0000    0.0000    0.0000 H   0  0  0  0  0  0  0  0  0  0  0  0
    0.0000    0.0000    0.0000 H   0  0  0  0  0  0  0  0  0  0  0  0
   12.4118    5.2664    9.0628 C   0  0  0  0  0  0  0  0  0  0  0  0
   12.0318    6.3556    8.1490 C   0  0  0  0  0  0  0  0  0  0  0  0
   12.6302    6.4448    6.9050 C   0  0  0  0  0  0  0  0  0  0  0  0
   12.3185    7.4400    6.0040 C   0  0  0  0  0  0  0  0  0  0  0  0
   11.3842    8.3939    6.3209 C   0  0  0  0  0  0  0  0  0  0  0  0
   11.0416    9.4021    5.4582 F   0  0  0  0  0  0  0  0  0  0  0  0
   10.7725    8.3295    7.5532 C   0  0  0  0  0  0  0  0  0  0  0  0
   11.0932    7.3195    8.4592 C   0  0  0  0  0  0  0  0  0  0  0  0
   11.6669    5.0850    9.8587 H   0  0  0  0  0  0  0  0  0  0  0  0
   12.7535    4.3649    8.5569 H   0  0  0  0  0  0  0  0  0  0  0  0
   13.3733    5.6995    6.6326 H   0  0  0  0  0  0  0  0  0  0  0  0
   12.8210    7.4546    5.0489 H   0  0  0  0  0  0  0  0  0  0  0  0
   10.0195    9.0486    7.8827 H   0  0  0  0  0  0  0  0  0  0  0  0
   10.6218    7.2538    9.4327 H   0  0  0  0  0  0  0  0  0  0  0  0
  1  3  2  0
  1  4  1  0
  1  5  1  0
  2  4  1  0
  2  6  1  0
  4  9  1  0
  4 15  1  0
  5  6  1  0
  5  8  1  0
  6  7  2  3
  9 10  2  0
  9 14  1  0
 10 11  1  0
 11 12  2  0
 12 13  1  0
 13 14  2  0
 15 16  2  0
 15 20  1  0
 16 17  1  0
 17 18  2  0
 18 19  1  0
 19 20  2  0
  2 21  1  0
  7 22  1  0
  8 23  1  0
  8 24  1  0
  8 25  1  0
 10 26  1  0
 11 27  1  0
 12 28  1  0
 13 29  1  0
 14 30  1  0
 16 31  1  0
 17 32  1  0
 19 33  1  0
 20 34  1  0
 35 36  1  0
 36 37  2  0
 37 38  1  0
 38 39  2  0
 39 40  1  0
 39 41  1  0
 41 42  2  0
 42 36  1  0
 35 43  1  0
 35 44  1  0
 37 45  1  0
 38 46  1  0
 41 47  1  0
 42 48  1  0
 18 35  1  0
M  END
>  <attachment_point>  (121) 
32

>  <score>  (121) 
<NA>

$$$$
4djw
     RDKit          3D

 43 45  0  0  0  0  0  0  0  0999 V2000
   22.4950   11.8750   22.5810 C   0  0  0  0  0  0  0  0  0  0  0  0
   22.5380    9.4930   22.4640 N   0  0  0  0  0  0  0  0  0  0  0  0
   22.3600   13.0630   22.3480 O   0  0  0  0  0  0  0  0  0  0  0  0
   22.3390   10.6680   21.5610 C   0  0  0  0  0  0  0  0  0  0  0  0
   22.7860   11.3350   23.8120 N   0  0  0  0  0  0  0  0  0  0  0  0
   22.7800    9.9140   23.7010 C   0  0  0  0  0  0  0  0  0  0  0  0
   22.9970    9.1110   24.7490 N   0  0  0  0  0  0  0  0  0  0  0  0
   23.0220   12.1410   25.0180 C   0  0  0  0  0  0  0  0  0  0  0  0
   20.9020   10.6270   21.0050 C   0  0  0  0  0  0  0  0  0  0  0  0
   20.2720    9.4140   20.7470 C   0  0  0  0  0  0  0  0  0  0  0  0
   18.9690    9.3760   20.2600 C   0  0  0  0  0  0  0  0  0  0  0  0
   18.2800   10.5440   20.0210 C   0  0  0  0  0  0  0  0  0  0  0  0
   18.8920   11.7530   20.2590 C   0  0  0  0  0  0  0  0  0  0  0  0
   20.1950   11.7970   20.7440 C   0  0  0  0  0  0  0  0  0  0  0  0
   23.4880   10.6920   20.5300 C   0  0  0  0  0  0  0  0  0  0  0  0
   23.2110   10.7890   19.1730 C   0  0  0  0  0  0  0  0  0  0  0  0
   24.2350   10.8650   18.2430 C   0  0  0  0  0  0  0  0  0  0  0  0
   25.5500   10.8410   18.6560 C   0  0  0  0  0  0  0  0  0  0  0  0
   25.8710   10.7460   20.0070 C   0  0  0  0  0  0  0  0  0  0  0  0
   24.8260   10.6610   20.9430 C   0  0  0  0  0  0  0  0  0  0  0  0
    0.0000    0.0000    0.0000 H   0  0  0  0  0  0  0  0  0  0  0  0
    0.0000    0.0000    0.0000 H   0  0  0  0  0  0  0  0  0  0  0  0
    0.0000    0.0000    0.0000 H   0  0  0  0  0  0  0  0  0  0  0  0
    0.0000    0.0000    0.0000 H   0  0  0  0  0  0  0  0  0  0  0  0
    0.0000    0.0000    0.0000 H   0  0  0  0  0  0  0  0  0  0  0  0
    0.0000    0.0000    0.0000 H   0  0  0  0  0  0  0  0  0  0  0  0
    0.0000    0.0000    0.0000 H   0  0  0  0  0  0  0  0  0  0  0  0
    0.0000    0.0000    0.0000 H   0  0  0  0  0  0  0  0  0  0  0  0
    0.0000    0.0000    0.0000 H   0  0  0  0  0  0  0  0  0  0  0  0
    0.0000    0.0000    0.0000 H   0  0  0  0  0  0  0  0  0  0  0  0
    0.0000    0.0000    0.0000 H   0  0  0  0  0  0  0  0  0  0  0  0
    0.0000    0.0000    0.0000 H   0  0  0  0  0  0  0  0  0  0  0  0
    0.0000    0.0000    0.0000 H   0  0  0  0  0  0  0  0  0  0  0  0
    0.0000    0.0000    0.0000 H   0  0  0  0  0  0  0  0  0  0  0  0
   12.5670    5.3322    9.1761 O   0  0  0  0  0  0  0  0  0  0  0  0
   12.2083    4.0956    8.6897 C   0  0  0  0  0  0  0  0  0  0  0  0
   10.9165    4.1973    7.8819 C   0  0  0  0  0  0  0  0  0  0  0  0
    9.8638    4.6779    8.6687 O   0  0  0  0  0  0  0  0  0  0  0  0
   12.0696    3.3203    9.4529 H   0  0  0  0  0  0  0  0  0  0  0  0
   12.9846    3.7632    7.9595 H   0  0  0  0  0  0  0  0  0  0  0  0
   11.0789    4.7810    6.9782 H   0  0  0  0  0  0  0  0  0  0  0  0
   10.6731    3.1570    7.5574 H   0  0  0  0  0  0  0  0  0  0  0  0
    9.4688    5.4374    8.1656 H   0  0  0  0  0  0  0  0  0  0  0  0
  1  3  2  0
  1  4  1  0
  1  5  1  0
  2  4  1  0
  2  6  1  0
  4  9  1  0
  4 15  1  0
  5  6  1  0
  5  8  1  0
  6  7  2  3
  9 10  2  0
  9 14  1  0
 10 11  1  0
 11 12  2  0
 12 13  1  0
 13 14  2  0
 15 16  2  0
 15 20  1  0
 16 17  1  0
 17 18  2  0
 18 19  1  0
 19 20  2  0
  2 21  1  0
  7 22  1  0
  8 23  1  0
  8 24  1  0
  8 25  1  0
 10 26  1  0
 11 27  1  0
 12 28  1  0
 13 29  1  0
 14 30  1  0
 16 31  1  0
 17 32  1  0
 19 33  1  0
 20 34  1  0
 35 36  1  0
 36 37  1  0
 37 38  1  0
 36 39  1  0
 36 40  1  0
 37 41  1  0
 37 42  1  0
 38 43  1  0
 18 35  1  0
M  END
>  <attachment_point>  (122) 
32

>  <score>  (122) 
<NA>

$$$$
4djw
     RDKit          3D

 50 52  0  0  0  0  0  0  0  0999 V2000
   22.4950   11.8750   22.5810 C   0  0  0  0  0  0  0  0  0  0  0  0
   22.5380    9.4930   22.4640 N   0  0  0  0  0  0  0  0  0  0  0  0
   22.3600   13.0630   22.3480 O   0  0  0  0  0  0  0  0  0  0  0  0
   22.3390   10.6680   21.5610 C   0  0  0  0  0  0  0  0  0  0  0  0
   22.7860   11.3350   23.8120 N   0  0  0  0  0  0  0  0  0  0  0  0
   22.7800    9.9140   23.7010 C   0  0  0  0  0  0  0  0  0  0  0  0
   22.9970    9.1110   24.7490 N   0  0  0  0  0  0  0  0  0  0  0  0
   23.0220   12.1410   25.0180 C   0  0  0  0  0  0  0  0  0  0  0  0
   20.9020   10.6270   21.0050 C   0  0  0  0  0  0  0  0  0  0  0  0
   20.2720    9.4140   20.7470 C   0  0  0  0  0  0  0  0  0  0  0  0
   18.9690    9.3760   20.2600 C   0  0  0  0  0  0  0  0  0  0  0  0
   18.2800   10.5440   20.0210 C   0  0  0  0  0  0  0  0  0  0  0  0
   18.8920   11.7530   20.2590 C   0  0  0  0  0  0  0  0  0  0  0  0
   20.1950   11.7970   20.7440 C   0  0  0  0  0  0  0  0  0  0  0  0
   23.4880   10.6920   20.5300 C   0  0  0  0  0  0  0  0  0  0  0  0
   23.2110   10.7890   19.1730 C   0  0  0  0  0  0  0  0  0  0  0  0
   24.2350   10.8650   18.2430 C   0  0  0  0  0  0  0  0  0  0  0  0
   25.5500   10.8410   18.6560 C   0  0  0  0  0  0  0  0  0  0  0  0
   25.8710   10.7460   20.0070 C   0  0  0  0  0  0  0  0  0  0  0  0
   24.8260   10.6610   20.9430 C   0  0  0  0  0  0  0  0  0  0  0  0
    0.0000    0.0000    0.0000 H   0  0  0  0  0  0  0  0  0  0  0  0
    0.0000    0.0000    0.0000 H   0  0  0  0  0  0  0  0  0  0  0  0
    0.0000    0.0000    0.0000 H   0  0  0  0  0  0  0  0  0  0  0  0
    0.0000    0.0000    0.0000 H   0  0  0  0  0  0  0  0  0  0  0  0
    0.0000    0.0000    0.0000 H   0  0  0  0  0  0  0  0  0  0  0  0
    0.0000    0.0000    0.0000 H   0  0  0  0  0  0  0  0  0  0  0  0
    0.0000    0.0000    0.0000 H   0  0  0  0  0  0  0  0  0  0  0  0
    0.0000    0.0000    0.0000 H   0  0  0  0  0  0  0  0  0  0  0  0
    0.0000    0.0000    0.0000 H   0  0  0  0  0  0  0  0  0  0  0  0
    0.0000    0.0000    0.0000 H   0  0  0  0  0  0  0  0  0  0  0  0
    0.0000    0.0000    0.0000 H   0  0  0  0  0  0  0  0  0  0  0  0
    0.0000    0.0000    0.0000 H   0  0  0  0  0  0  0  0  0  0  0  0
    0.0000    0.0000    0.0000 H   0  0  0  0  0  0  0  0  0  0  0  0
    0.0000    0.0000    0.0000 H   0  0  0  0  0  0  0  0  0  0  0  0
   12.4441    5.2801    9.0864 O   0  0  0  0  0  0  0  0  0  0  0  0
   12.9140    5.1864    7.7646 C   0  0  0  0  0  0  0  0  0  0  0  0
   11.9418    4.4555    6.9164 C   0  0  0  0  0  0  0  0  0  0  0  0
   10.6309    5.0208    6.7976 N   0  0  0  0  0  0  0  0  0  0  0  0
    9.7212    4.1398    6.1030 C   0  0  0  0  0  0  0  0  0  0  0  0
   10.6250    6.3654    6.2782 C   0  0  0  0  0  0  0  0  0  0  0  0
   13.8679    4.5797    7.7594 H   0  0  0  0  0  0  0  0  0  0  0  0
   13.2045    6.1905    7.4385 H   0  0  0  0  0  0  0  0  0  0  0  0
   12.3260    4.3372    5.8661 H   0  0  0  0  0  0  0  0  0  0  0  0
   11.8210    3.4265    7.3107 H   0  0  0  0  0  0  0  0  0  0  0  0
    9.3827    3.4011    6.8878 H   0  0  0  0  0  0  0  0  0  0  0  0
    8.8483    4.6231    5.7003 H   0  0  0  0  0  0  0  0  0  0  0  0
   10.2213    3.5263    5.3251 H   0  0  0  0  0  0  0  0  0  0  0  0
   10.9302    7.1014    7.0354 H   0  0  0  0  0  0  0  0  0  0  0  0
    9.6253    6.5965    5.9105 H   0  0  0  0  0  0  0  0  0  0  0  0
   11.4151    6.4040    5.4597 H   0  0  0  0  0  0  0  0  0  0  0  0
  1  3  2  0
  1  4  1  0
  1  5  1  0
  2  4  1  0
  2  6  1  0
  4  9  1  0
  4 15  1  0
  5  6  1  0
  5  8  1  0
  6  7  2  3
  9 10  2  0
  9 14  1  0
 10 11  1  0
 11 12  2  0
 12 13  1  0
 13 14  2  0
 15 16  2  0
 15 20  1  0
 16 17  1  0
 17 18  2  0
 18 19  1  0
 19 20  2  0
  2 21  1  0
  7 22  1  0
  8 23  1  0
  8 24  1  0
  8 25  1  0
 10 26  1  0
 11 27  1  0
 12 28  1  0
 13 29  1  0
 14 30  1  0
 16 31  1  0
 17 32  1  0
 19 33  1  0
 20 34  1  0
 35 36  1  0
 36 37  1  0
 37 38  1  0
 38 39  1  0
 38 40  1  0
 36 41  1  0
 36 42  1  0
 37 43  1  0
 37 44  1  0
 39 45  1  0
 39 46  1  0
 39 47  1  0
 40 48  1  0
 40 49  1  0
 40 50  1  0
 18 35  1  0
M  END
>  <attachment_point>  (123) 
32

>  <score>  (123) 
<NA>

$$$$
4djw
     RDKit          3D

 47 50  0  0  0  0  0  0  0  0999 V2000
   22.4950   11.8750   22.5810 C   0  0  0  0  0  0  0  0  0  0  0  0
   22.5380    9.4930   22.4640 N   0  0  0  0  0  0  0  0  0  0  0  0
   22.3600   13.0630   22.3480 O   0  0  0  0  0  0  0  0  0  0  0  0
   22.3390   10.6680   21.5610 C   0  0  0  0  0  0  0  0  0  0  0  0
   22.7860   11.3350   23.8120 N   0  0  0  0  0  0  0  0  0  0  0  0
   22.7800    9.9140   23.7010 C   0  0  0  0  0  0  0  0  0  0  0  0
   22.9970    9.1110   24.7490 N   0  0  0  0  0  0  0  0  0  0  0  0
   23.0220   12.1410   25.0180 C   0  0  0  0  0  0  0  0  0  0  0  0
   20.9020   10.6270   21.0050 C   0  0  0  0  0  0  0  0  0  0  0  0
   20.2720    9.4140   20.7470 C   0  0  0  0  0  0  0  0  0  0  0  0
   18.9690    9.3760   20.2600 C   0  0  0  0  0  0  0  0  0  0  0  0
   18.2800   10.5440   20.0210 C   0  0  0  0  0  0  0  0  0  0  0  0
   18.8920   11.7530   20.2590 C   0  0  0  0  0  0  0  0  0  0  0  0
   20.1950   11.7970   20.7440 C   0  0  0  0  0  0  0  0  0  0  0  0
   23.4880   10.6920   20.5300 C   0  0  0  0  0  0  0  0  0  0  0  0
   23.2110   10.7890   19.1730 C   0  0  0  0  0  0  0  0  0  0  0  0
   24.2350   10.8650   18.2430 C   0  0  0  0  0  0  0  0  0  0  0  0
   25.5500   10.8410   18.6560 C   0  0  0  0  0  0  0  0  0  0  0  0
   25.8710   10.7460   20.0070 C   0  0  0  0  0  0  0  0  0  0  0  0
   24.8260   10.6610   20.9430 C   0  0  0  0  0  0  0  0  0  0  0  0
    0.0000    0.0000    0.0000 H   0  0  0  0  0  0  0  0  0  0  0  0
    0.0000    0.0000    0.0000 H   0  0  0  0  0  0  0  0  0  0  0  0
    0.0000    0.0000    0.0000 H   0  0  0  0  0  0  0  0  0  0  0  0
    0.0000    0.0000    0.0000 H   0  0  0  0  0  0  0  0  0  0  0  0
    0.0000    0.0000    0.0000 H   0  0  0  0  0  0  0  0  0  0  0  0
    0.0000    0.0000    0.0000 H   0  0  0  0  0  0  0  0  0  0  0  0
    0.0000    0.0000    0.0000 H   0  0  0  0  0  0  0  0  0  0  0  0
    0.0000    0.0000    0.0000 H   0  0  0  0  0  0  0  0  0  0  0  0
    0.0000    0.0000    0.0000 H   0  0  0  0  0  0  0  0  0  0  0  0
    0.0000    0.0000    0.0000 H   0  0  0  0  0  0  0  0  0  0  0  0
    0.0000    0.0000    0.0000 H   0  0  0  0  0  0  0  0  0  0  0  0
    0.0000    0.0000    0.0000 H   0  0  0  0  0  0  0  0  0  0  0  0
    0.0000    0.0000    0.0000 H   0  0  0  0  0  0  0  0  0  0  0  0
    0.0000    0.0000    0.0000 H   0  0  0  0  0  0  0  0  0  0  0  0
   12.4166    5.2684    9.0663 C   0  0  0  0  0  0  0  0  0  0  0  0
   12.5919    4.1668    8.2661 C   0  0  0  0  0  0  0  0  0  0  0  0
   11.5137    3.7219    7.4888 C   0  0  0  0  0  0  0  0  0  0  0  0
   10.2950    4.3899    7.5346 C   0  0  0  0  0  0  0  0  0  0  0  0
    9.2131    3.9266    6.7413 N   0  0  0  0  0  0  0  0  0  0  0  0
   10.1821    5.4899    8.3582 C   0  0  0  0  0  0  0  0  0  0  0  0
   11.2377    5.9544    9.1420 C   0  0  0  0  0  0  0  0  0  0  0  0
   13.5074    3.6315    8.2053 H   0  0  0  0  0  0  0  0  0  0  0  0
   11.5952    2.8613    6.8417 H   0  0  0  0  0  0  0  0  0  0  0  0
    8.7496    4.5755    6.0796 H   0  0  0  0  0  0  0  0  0  0  0  0
    8.8743    2.9491    6.8092 H   0  0  0  0  0  0  0  0  0  0  0  0
    9.2097    5.9893    8.3683 H   0  0  0  0  0  0  0  0  0  0  0  0
   11.0828    6.8181    9.7626 H   0  0  0  0  0  0  0  0  0  0  0  0
  1  3  2  0
  1  4  1  0
  1  5  1  0
  2  4  1  0
  2  6  1  0
  4  9  1  0
  4 15  1  0
  5  6  1  0
  5  8  1  0
  6  7  2  3
  9 10  2  0
  9 14  1  0
 10 11  1  0
 11 12  2  0
 12 13  1  0
 13 14  2  0
 15 16  2  0
 15 20  1  0
 16 17  1  0
 17 18  2  0
 18 19  1  0
 19 20  2  0
  2 21  1  0
  7 22  1  0
  8 23  1  0
  8 24  1  0
  8 25  1  0
 10 26  1  0
 11 27  1  0
 12 28  1  0
 13 29  1  0
 14 30  1  0
 16 31  1  0
 17 32  1  0
 19 33  1  0
 20 34  1  0
 35 36  2  0
 36 37  1  0
 37 38  2  0
 38 39  1  0
 38 40  1  0
 40 41  2  0
 41 35  1  0
 36 42  1  0
 37 43  1  0
 39 44  1  0
 39 45  1  0
 40 46  1  0
 41 47  1  0
 18 35  1  0
M  END
>  <attachment_point>  (124) 
32

>  <score>  (124) 
<NA>

$$$$
4djw
     RDKit          3D

 48 51  0  0  0  0  0  0  0  0999 V2000
   22.4950   11.8750   22.5810 C   0  0  0  0  0  0  0  0  0  0  0  0
   22.5380    9.4930   22.4640 N   0  0  0  0  0  0  0  0  0  0  0  0
   22.3600   13.0630   22.3480 O   0  0  0  0  0  0  0  0  0  0  0  0
   22.3390   10.6680   21.5610 C   0  0  0  0  0  0  0  0  0  0  0  0
   22.7860   11.3350   23.8120 N   0  0  0  0  0  0  0  0  0  0  0  0
   22.7800    9.9140   23.7010 C   0  0  0  0  0  0  0  0  0  0  0  0
   22.9970    9.1110   24.7490 N   0  0  0  0  0  0  0  0  0  0  0  0
   23.0220   12.1410   25.0180 C   0  0  0  0  0  0  0  0  0  0  0  0
   20.9020   10.6270   21.0050 C   0  0  0  0  0  0  0  0  0  0  0  0
   20.2720    9.4140   20.7470 C   0  0  0  0  0  0  0  0  0  0  0  0
   18.9690    9.3760   20.2600 C   0  0  0  0  0  0  0  0  0  0  0  0
   18.2800   10.5440   20.0210 C   0  0  0  0  0  0  0  0  0  0  0  0
   18.8920   11.7530   20.2590 C   0  0  0  0  0  0  0  0  0  0  0  0
   20.1950   11.7970   20.7440 C   0  0  0  0  0  0  0  0  0  0  0  0
   23.4880   10.6920   20.5300 C   0  0  0  0  0  0  0  0  0  0  0  0
   23.2110   10.7890   19.1730 C   0  0  0  0  0  0  0  0  0  0  0  0
   24.2350   10.8650   18.2430 C   0  0  0  0  0  0  0  0  0  0  0  0
   25.5500   10.8410   18.6560 C   0  0  0  0  0  0  0  0  0  0  0  0
   25.8710   10.7460   20.0070 C   0  0  0  0  0  0  0  0  0  0  0  0
   24.8260   10.6610   20.9430 C   0  0  0  0  0  0  0  0  0  0  0  0
    0.0000    0.0000    0.0000 H   0  0  0  0  0  0  0  0  0  0  0  0
    0.0000    0.0000    0.0000 H   0  0  0  0  0  0  0  0  0  0  0  0
    0.0000    0.0000    0.0000 H   0  0  0  0  0  0  0  0  0  0  0  0
    0.0000    0.0000    0.0000 H   0  0  0  0  0  0  0  0  0  0  0  0
    0.0000    0.0000    0.0000 H   0  0  0  0  0  0  0  0  0  0  0  0
    0.0000    0.0000    0.0000 H   0  0  0  0  0  0  0  0  0  0  0  0
    0.0000    0.0000    0.0000 H   0  0  0  0  0  0  0  0  0  0  0  0
    0.0000    0.0000    0.0000 H   0  0  0  0  0  0  0  0  0  0  0  0
    0.0000    0.0000    0.0000 H   0  0  0  0  0  0  0  0  0  0  0  0
    0.0000    0.0000    0.0000 H   0  0  0  0  0  0  0  0  0  0  0  0
    0.0000    0.0000    0.0000 H   0  0  0  0  0  0  0  0  0  0  0  0
    0.0000    0.0000    0.0000 H   0  0  0  0  0  0  0  0  0  0  0  0
    0.0000    0.0000    0.0000 H   0  0  0  0  0  0  0  0  0  0  0  0
    0.0000    0.0000    0.0000 H   0  0  0  0  0  0  0  0  0  0  0  0
   12.4410    5.2788    9.0841 C   0  0  0  0  0  0  0  0  0  0  0  0
   12.6044    4.7264    7.8450 C   0  0  0  0  0  0  0  0  0  0  0  0
   11.5138    4.2958    7.1187 C   0  0  0  0  0  0  0  0  0  0  0  0
   10.2721    4.4511    7.7018 C   0  0  0  0  0  0  0  0  0  0  0  0
   10.1146    5.0104    8.9548 C   0  0  0  0  0  0  0  0  0  0  0  0
   11.2074    5.4415    9.6818 C   0  0  0  0  0  0  0  0  0  0  0  0
   11.0527    6.0447   11.0299 C   0  0  0  0  0  0  0  0  0  0  0  0
   13.5862    4.6222    7.4247 H   0  0  0  0  0  0  0  0  0  0  0  0
   11.6006    3.8525    6.1333 H   0  0  0  0  0  0  0  0  0  0  0  0
    9.4037    4.1072    7.1211 H   0  0  0  0  0  0  0  0  0  0  0  0
    9.1129    5.1191    9.3890 H   0  0  0  0  0  0  0  0  0  0  0  0
   10.0789    6.5603   11.1525 H   0  0  0  0  0  0  0  0  0  0  0  0
   11.1379    5.3108   11.8432 H   0  0  0  0  0  0  0  0  0  0  0  0
   11.8294    6.8250   11.2341 H   0  0  0  0  0  0  0  0  0  0  0  0
  1  3  2  0
  1  4  1  0
  1  5  1  0
  2  4  1  0
  2  6  1  0
  4  9  1  0
  4 15  1  0
  5  6  1  0
  5  8  1  0
  6  7  2  3
  9 10  2  0
  9 14  1  0
 10 11  1  0
 11 12  2  0
 12 13  1  0
 13 14  2  0
 15 16  2  0
 15 20  1  0
 16 17  1  0
 17 18  2  0
 18 19  1  0
 19 20  2  0
  2 21  1  0
  7 22  1  0
  8 23  1  0
  8 24  1  0
  8 25  1  0
 10 26  1  0
 11 27  1  0
 12 28  1  0
 13 29  1  0
 14 30  1  0
 16 31  1  0
 17 32  1  0
 19 33  1  0
 20 34  1  0
 35 36  2  0
 36 37  1  0
 37 38  2  0
 38 39  1  0
 39 40  2  0
 40 41  1  0
 40 35  1  0
 36 42  1  0
 37 43  1  0
 38 44  1  0
 39 45  1  0
 41 46  1  0
 41 47  1  0
 41 48  1  0
 18 35  1  0
M  END
>  <attachment_point>  (125) 
32

>  <score>  (125) 
<NA>

$$$$
4djw
     RDKit          3D

 48 51  0  0  0  0  0  0  0  0999 V2000
   22.4950   11.8750   22.5810 C   0  0  0  0  0  0  0  0  0  0  0  0
   22.5380    9.4930   22.4640 N   0  0  0  0  0  0  0  0  0  0  0  0
   22.3600   13.0630   22.3480 O   0  0  0  0  0  0  0  0  0  0  0  0
   22.3390   10.6680   21.5610 C   0  0  0  0  0  0  0  0  0  0  0  0
   22.7860   11.3350   23.8120 N   0  0  0  0  0  0  0  0  0  0  0  0
   22.7800    9.9140   23.7010 C   0  0  0  0  0  0  0  0  0  0  0  0
   22.9970    9.1110   24.7490 N   0  0  0  0  0  0  0  0  0  0  0  0
   23.0220   12.1410   25.0180 C   0  0  0  0  0  0  0  0  0  0  0  0
   20.9020   10.6270   21.0050 C   0  0  0  0  0  0  0  0  0  0  0  0
   20.2720    9.4140   20.7470 C   0  0  0  0  0  0  0  0  0  0  0  0
   18.9690    9.3760   20.2600 C   0  0  0  0  0  0  0  0  0  0  0  0
   18.2800   10.5440   20.0210 C   0  0  0  0  0  0  0  0  0  0  0  0
   18.8920   11.7530   20.2590 C   0  0  0  0  0  0  0  0  0  0  0  0
   20.1950   11.7970   20.7440 C   0  0  0  0  0  0  0  0  0  0  0  0
   23.4880   10.6920   20.5300 C   0  0  0  0  0  0  0  0  0  0  0  0
   23.2110   10.7890   19.1730 C   0  0  0  0  0  0  0  0  0  0  0  0
   24.2350   10.8650   18.2430 C   0  0  0  0  0  0  0  0  0  0  0  0
   25.5500   10.8410   18.6560 C   0  0  0  0  0  0  0  0  0  0  0  0
   25.8710   10.7460   20.0070 C   0  0  0  0  0  0  0  0  0  0  0  0
   24.8260   10.6610   20.9430 C   0  0  0  0  0  0  0  0  0  0  0  0
    0.0000    0.0000    0.0000 H   0  0  0  0  0  0  0  0  0  0  0  0
    0.0000    0.0000    0.0000 H   0  0  0  0  0  0  0  0  0  0  0  0
    0.0000    0.0000    0.0000 H   0  0  0  0  0  0  0  0  0  0  0  0
    0.0000    0.0000    0.0000 H   0  0  0  0  0  0  0  0  0  0  0  0
    0.0000    0.0000    0.0000 H   0  0  0  0  0  0  0  0  0  0  0  0
    0.0000    0.0000    0.0000 H   0  0  0  0  0  0  0  0  0  0  0  0
    0.0000    0.0000    0.0000 H   0  0  0  0  0  0  0  0  0  0  0  0
    0.0000    0.0000    0.0000 H   0  0  0  0  0  0  0  0  0  0  0  0
    0.0000    0.0000    0.0000 H   0  0  0  0  0  0  0  0  0  0  0  0
    0.0000    0.0000    0.0000 H   0  0  0  0  0  0  0  0  0  0  0  0
    0.0000    0.0000    0.0000 H   0  0  0  0  0  0  0  0  0  0  0  0
    0.0000    0.0000    0.0000 H   0  0  0  0  0  0  0  0  0  0  0  0
    0.0000    0.0000    0.0000 H   0  0  0  0  0  0  0  0  0  0  0  0
    0.0000    0.0000    0.0000 H   0  0  0  0  0  0  0  0  0  0  0  0
   12.4288    5.2736    9.0752 C   0  0  0  0  0  0  0  0  0  0  0  0
   11.1636    5.7566    9.2697 C   0  0  0  0  0  0  0  0  0  0  0  0
   10.0832    5.3369    8.5230 C   0  0  0  0  0  0  0  0  0  0  0  0
   10.2741    4.3951    7.5406 C   0  0  0  0  0  0  0  0  0  0  0  0
    9.1891    3.8671    6.6738 C   0  0  0  0  0  0  0  0  0  0  0  0
    8.9893    2.5590    7.0114 F   0  0  0  0  0  0  0  0  0  0  0  0
    9.6558    3.9310    5.3718 F   0  0  0  0  0  0  0  0  0  0  0  0
    8.0319    4.6262    6.7897 F   0  0  0  0  0  0  0  0  0  0  0  0
   11.5425    3.9031    7.3370 C   0  0  0  0  0  0  0  0  0  0  0  0
   12.6208    4.3405    8.1024 C   0  0  0  0  0  0  0  0  0  0  0  0
   11.0298    6.5093   10.0599 H   0  0  0  0  0  0  0  0  0  0  0  0
    9.0839    5.7177    8.6758 H   0  0  0  0  0  0  0  0  0  0  0  0
   11.7721    3.1574    6.5799 H   0  0  0  0  0  0  0  0  0  0  0  0
   13.6047    3.9370    7.9207 H   0  0  0  0  0  0  0  0  0  0  0  0
  1  3  2  0
  1  4  1  0
  1  5  1  0
  2  4  1  0
  2  6  1  0
  4  9  1  0
  4 15  1  0
  5  6  1  0
  5  8  1  0
  6  7  2  3
  9 10  2  0
  9 14  1  0
 10 11  1  0
 11 12  2  0
 12 13  1  0
 13 14  2  0
 15 16  2  0
 15 20  1  0
 16 17  1  0
 17 18  2  0
 18 19  1  0
 19 20  2  0
  2 21  1  0
  7 22  1  0
  8 23  1  0
  8 24  1  0
  8 25  1  0
 10 26  1  0
 11 27  1  0
 12 28  1  0
 13 29  1  0
 14 30  1  0
 16 31  1  0
 17 32  1  0
 19 33  1  0
 20 34  1  0
 35 36  2  0
 36 37  1  0
 37 38  2  0
 38 39  1  0
 39 40  1  0
 39 41  1  0
 39 42  1  0
 38 43  1  0
 43 44  2  0
 44 35  1  0
 36 45  1  0
 37 46  1  0
 43 47  1  0
 44 48  1  0
 18 35  1  0
M  END
>  <attachment_point>  (126) 
32

>  <score>  (126) 
<NA>

$$$$
4djw
     RDKit          3D

 49 51  0  0  0  0  0  0  0  0999 V2000
   22.4950   11.8750   22.5810 C   0  0  0  0  0  0  0  0  0  0  0  0
   22.5380    9.4930   22.4640 N   0  0  0  0  0  0  0  0  0  0  0  0
   22.3600   13.0630   22.3480 O   0  0  0  0  0  0  0  0  0  0  0  0
   22.3390   10.6680   21.5610 C   0  0  0  0  0  0  0  0  0  0  0  0
   22.7860   11.3350   23.8120 N   0  0  0  0  0  0  0  0  0  0  0  0
   22.7800    9.9140   23.7010 C   0  0  0  0  0  0  0  0  0  0  0  0
   22.9970    9.1110   24.7490 N   0  0  0  0  0  0  0  0  0  0  0  0
   23.0220   12.1410   25.0180 C   0  0  0  0  0  0  0  0  0  0  0  0
   20.9020   10.6270   21.0050 C   0  0  0  0  0  0  0  0  0  0  0  0
   20.2720    9.4140   20.7470 C   0  0  0  0  0  0  0  0  0  0  0  0
   18.9690    9.3760   20.2600 C   0  0  0  0  0  0  0  0  0  0  0  0
   18.2800   10.5440   20.0210 C   0  0  0  0  0  0  0  0  0  0  0  0
   18.8920   11.7530   20.2590 C   0  0  0  0  0  0  0  0  0  0  0  0
   20.1950   11.7970   20.7440 C   0  0  0  0  0  0  0  0  0  0  0  0
   23.4880   10.6920   20.5300 C   0  0  0  0  0  0  0  0  0  0  0  0
   23.2110   10.7890   19.1730 C   0  0  0  0  0  0  0  0  0  0  0  0
   24.2350   10.8650   18.2430 C   0  0  0  0  0  0  0  0  0  0  0  0
   25.5500   10.8410   18.6560 C   0  0  0  0  0  0  0  0  0  0  0  0
   25.8710   10.7460   20.0070 C   0  0  0  0  0  0  0  0  0  0  0  0
   24.8260   10.6610   20.9430 C   0  0  0  0  0  0  0  0  0  0  0  0
    0.0000    0.0000    0.0000 H   0  0  0  0  0  0  0  0  0  0  0  0
    0.0000    0.0000    0.0000 H   0  0  0  0  0  0  0  0  0  0  0  0
    0.0000    0.0000    0.0000 H   0  0  0  0  0  0  0  0  0  0  0  0
    0.0000    0.0000    0.0000 H   0  0  0  0  0  0  0  0  0  0  0  0
    0.0000    0.0000    0.0000 H   0  0  0  0  0  0  0  0  0  0  0  0
    0.0000    0.0000    0.0000 H   0  0  0  0  0  0  0  0  0  0  0  0
    0.0000    0.0000    0.0000 H   0  0  0  0  0  0  0  0  0  0  0  0
    0.0000    0.0000    0.0000 H   0  0  0  0  0  0  0  0  0  0  0  0
    0.0000    0.0000    0.0000 H   0  0  0  0  0  0  0  0  0  0  0  0
    0.0000    0.0000    0.0000 H   0  0  0  0  0  0  0  0  0  0  0  0
    0.0000    0.0000    0.0000 H   0  0  0  0  0  0  0  0  0  0  0  0
    0.0000    0.0000    0.0000 H   0  0  0  0  0  0  0  0  0  0  0  0
    0.0000    0.0000    0.0000 H   0  0  0  0  0  0  0  0  0  0  0  0
    0.0000    0.0000    0.0000 H   0  0  0  0  0  0  0  0  0  0  0  0
   12.4959    5.3021    9.1242 N   0  0  0  0  0  0  0  0  0  0  0  0
   11.2120    5.9280    9.3073 C   0  0  0  0  0  0  0  0  0  0  0  0
   11.0200    6.2660   10.7649 C   0  0  0  0  0  0  0  0  0  0  0  0
   12.7296    4.8437    7.7993 C   0  0  0  0  0  0  0  0  0  0  0  0
   14.1760    4.4831    7.6098 C   0  0  0  0  0  0  0  0  0  0  0  0
   10.3846    5.3956    8.8526 H   0  0  0  0  0  0  0  0  0  0  0  0
   11.2227    6.9490    8.7582 H   0  0  0  0  0  0  0  0  0  0  0  0
   11.4415    7.2442   11.0610 H   0  0  0  0  0  0  0  0  0  0  0  0
   11.4746    5.5110   11.4327 H   0  0  0  0  0  0  0  0  0  0  0  0
    9.9128    6.2764   11.0172 H   0  0  0  0  0  0  0  0  0  0  0  0
   12.3464    5.4525    6.9724 H   0  0  0  0  0  0  0  0  0  0  0  0
   12.1742    3.8407    7.6496 H   0  0  0  0  0  0  0  0  0  0  0  0
   14.3713    3.4397    7.3367 H   0  0  0  0  0  0  0  0  0  0  0  0
   14.7338    4.6567    8.5712 H   0  0  0  0  0  0  0  0  0  0  0  0
   14.6450    5.1455    6.8536 H   0  0  0  0  0  0  0  0  0  0  0  0
  1  3  2  0
  1  4  1  0
  1  5  1  0
  2  4  1  0
  2  6  1  0
  4  9  1  0
  4 15  1  0
  5  6  1  0
  5  8  1  0
  6  7  2  3
  9 10  2  0
  9 14  1  0
 10 11  1  0
 11 12  2  0
 12 13  1  0
 13 14  2  0
 15 16  2  0
 15 20  1  0
 16 17  1  0
 17 18  2  0
 18 19  1  0
 19 20  2  0
  2 21  1  0
  7 22  1  0
  8 23  1  0
  8 24  1  0
  8 25  1  0
 10 26  1  0
 11 27  1  0
 12 28  1  0
 13 29  1  0
 14 30  1  0
 16 31  1  0
 17 32  1  0
 19 33  1  0
 20 34  1  0
 35 36  1  0
 36 37  1  0
 35 38  1  0
 38 39  1  0
 36 40  1  0
 36 41  1  0
 37 42  1  0
 37 43  1  0
 37 44  1  0
 38 45  1  0
 38 46  1  0
 39 47  1  0
 39 48  1  0
 39 49  1  0
 18 35  1  0
M  END
>  <attachment_point>  (127) 
32

>  <score>  (127) 
<NA>

$$$$
4djw
     RDKit          3D

 55 58  0  0  0  0  0  0  0  0999 V2000
   22.4950   11.8750   22.5810 C   0  0  0  0  0  0  0  0  0  0  0  0
   22.5380    9.4930   22.4640 N   0  0  0  0  0  0  0  0  0  0  0  0
   22.3600   13.0630   22.3480 O   0  0  0  0  0  0  0  0  0  0  0  0
   22.3390   10.6680   21.5610 C   0  0  0  0  0  0  0  0  0  0  0  0
   22.7860   11.3350   23.8120 N   0  0  0  0  0  0  0  0  0  0  0  0
   22.7800    9.9140   23.7010 C   0  0  0  0  0  0  0  0  0  0  0  0
   22.9970    9.1110   24.7490 N   0  0  0  0  0  0  0  0  0  0  0  0
   23.0220   12.1410   25.0180 C   0  0  0  0  0  0  0  0  0  0  0  0
   20.9020   10.6270   21.0050 C   0  0  0  0  0  0  0  0  0  0  0  0
   20.2720    9.4140   20.7470 C   0  0  0  0  0  0  0  0  0  0  0  0
   18.9690    9.3760   20.2600 C   0  0  0  0  0  0  0  0  0  0  0  0
   18.2800   10.5440   20.0210 C   0  0  0  0  0  0  0  0  0  0  0  0
   18.8920   11.7530   20.2590 C   0  0  0  0  0  0  0  0  0  0  0  0
   20.1950   11.7970   20.7440 C   0  0  0  0  0  0  0  0  0  0  0  0
   23.4880   10.6920   20.5300 C   0  0  0  0  0  0  0  0  0  0  0  0
   23.2110   10.7890   19.1730 C   0  0  0  0  0  0  0  0  0  0  0  0
   24.2350   10.8650   18.2430 C   0  0  0  0  0  0  0  0  0  0  0  0
   25.5500   10.8410   18.6560 C   0  0  0  0  0  0  0  0  0  0  0  0
   25.8710   10.7460   20.0070 C   0  0  0  0  0  0  0  0  0  0  0  0
   24.8260   10.6610   20.9430 C   0  0  0  0  0  0  0  0  0  0  0  0
    0.0000    0.0000    0.0000 H   0  0  0  0  0  0  0  0  0  0  0  0
    0.0000    0.0000    0.0000 H   0  0  0  0  0  0  0  0  0  0  0  0
    0.0000    0.0000    0.0000 H   0  0  0  0  0  0  0  0  0  0  0  0
    0.0000    0.0000    0.0000 H   0  0  0  0  0  0  0  0  0  0  0  0
    0.0000    0.0000    0.0000 H   0  0  0  0  0  0  0  0  0  0  0  0
    0.0000    0.0000    0.0000 H   0  0  0  0  0  0  0  0  0  0  0  0
    0.0000    0.0000    0.0000 H   0  0  0  0  0  0  0  0  0  0  0  0
    0.0000    0.0000    0.0000 H   0  0  0  0  0  0  0  0  0  0  0  0
    0.0000    0.0000    0.0000 H   0  0  0  0  0  0  0  0  0  0  0  0
    0.0000    0.0000    0.0000 H   0  0  0  0  0  0  0  0  0  0  0  0
    0.0000    0.0000    0.0000 H   0  0  0  0  0  0  0  0  0  0  0  0
    0.0000    0.0000    0.0000 H   0  0  0  0  0  0  0  0  0  0  0  0
    0.0000    0.0000    0.0000 H   0  0  0  0  0  0  0  0  0  0  0  0
    0.0000    0.0000    0.0000 H   0  0  0  0  0  0  0  0  0  0  0  0
   12.4329    5.2754    9.0782 C   0  0  0  0  0  0  0  0  0  0  0  0
   12.5588    5.1422    7.8478 O   0  0  0  0  0  0  0  0  0  0  0  0
   11.1878    4.9557    9.6478 N   0  0  0  0  0  0  0  0  0  0  0  0
   10.1148    4.4989    8.8539 C   0  0  0  0  0  0  0  0  0  0  0  0
    8.9935    5.5427    8.9351 C   0  0  0  0  0  0  0  0  0  0  0  0
    8.0426    5.2081    7.8047 C   0  0  0  0  0  0  0  0  0  0  0  0
    7.3899    3.8955    8.1561 C   0  0  0  0  0  0  0  0  0  0  0  0
    8.3684    2.8007    8.4299 C   0  0  0  0  0  0  0  0  0  0  0  0
    9.5295    3.1825    9.2748 C   0  0  0  0  0  0  0  0  0  0  0  0
   11.0386    5.0549   10.6909 H   0  0  0  0  0  0  0  0  0  0  0  0
   10.3825    4.4336    7.7815 H   0  0  0  0  0  0  0  0  0  0  0  0
    9.4146    6.5513    8.7384 H   0  0  0  0  0  0  0  0  0  0  0  0
    8.5126    5.4651    9.9315 H   0  0  0  0  0  0  0  0  0  0  0  0
    8.6502    5.0649    6.8929 H   0  0  0  0  0  0  0  0  0  0  0  0
    7.2584    5.9580    7.6692 H   0  0  0  0  0  0  0  0  0  0  0  0
    6.6558    4.0510    8.9832 H   0  0  0  0  0  0  0  0  0  0  0  0
    6.7821    3.5932    7.2763 H   0  0  0  0  0  0  0  0  0  0  0  0
    7.8079    1.9909    8.9755 H   0  0  0  0  0  0  0  0  0  0  0  0
    8.7046    2.3227    7.4769 H   0  0  0  0  0  0  0  0  0  0  0  0
    9.2278    3.2859   10.3476 H   0  0  0  0  0  0  0  0  0  0  0  0
   10.3036    2.3948    9.1344 H   0  0  0  0  0  0  0  0  0  0  0  0
  1  3  2  0
  1  4  1  0
  1  5  1  0
  2  4  1  0
  2  6  1  0
  4  9  1  0
  4 15  1  0
  5  6  1  0
  5  8  1  0
  6  7  2  3
  9 10  2  0
  9 14  1  0
 10 11  1  0
 11 12  2  0
 12 13  1  0
 13 14  2  0
 15 16  2  0
 15 20  1  0
 16 17  1  0
 17 18  2  0
 18 19  1  0
 19 20  2  0
  2 21  1  0
  7 22  1  0
  8 23  1  0
  8 24  1  0
  8 25  1  0
 10 26  1  0
 11 27  1  0
 12 28  1  0
 13 29  1  0
 14 30  1  0
 16 31  1  0
 17 32  1  0
 19 33  1  0
 20 34  1  0
 35 36  2  0
 35 37  1  0
 37 38  1  0
 38 39  1  0
 39 40  1  0
 40 41  1  0
 41 42  1  0
 42 43  1  0
 43 38  1  0
 37 44  1  0
 38 45  1  0
 39 46  1  0
 39 47  1  0
 40 48  1  0
 40 49  1  0
 41 50  1  0
 41 51  1  0
 42 52  1  0
 42 53  1  0
 43 54  1  0
 43 55  1  0
 18 35  1  0
M  END
>  <attachment_point>  (128) 
32

>  <score>  (128) 
<NA>

$$$$
4djw
     RDKit          3D

 47 51  0  0  0  0  0  0  0  0999 V2000
   22.4950   11.8750   22.5810 C   0  0  0  0  0  0  0  0  0  0  0  0
   22.5380    9.4930   22.4640 N   0  0  0  0  0  0  0  0  0  0  0  0
   22.3600   13.0630   22.3480 O   0  0  0  0  0  0  0  0  0  0  0  0
   22.3390   10.6680   21.5610 C   0  0  0  0  0  0  0  0  0  0  0  0
   22.7860   11.3350   23.8120 N   0  0  0  0  0  0  0  0  0  0  0  0
   22.7800    9.9140   23.7010 C   0  0  0  0  0  0  0  0  0  0  0  0
   22.9970    9.1110   24.7490 N   0  0  0  0  0  0  0  0  0  0  0  0
   23.0220   12.1410   25.0180 C   0  0  0  0  0  0  0  0  0  0  0  0
   20.9020   10.6270   21.0050 C   0  0  0  0  0  0  0  0  0  0  0  0
   20.2720    9.4140   20.7470 C   0  0  0  0  0  0  0  0  0  0  0  0
   18.9690    9.3760   20.2600 C   0  0  0  0  0  0  0  0  0  0  0  0
   18.2800   10.5440   20.0210 C   0  0  0  0  0  0  0  0  0  0  0  0
   18.8920   11.7530   20.2590 C   0  0  0  0  0  0  0  0  0  0  0  0
   20.1950   11.7970   20.7440 C   0  0  0  0  0  0  0  0  0  0  0  0
   23.4880   10.6920   20.5300 C   0  0  0  0  0  0  0  0  0  0  0  0
   23.2110   10.7890   19.1730 C   0  0  0  0  0  0  0  0  0  0  0  0
   24.2350   10.8650   18.2430 C   0  0  0  0  0  0  0  0  0  0  0  0
   25.5500   10.8410   18.6560 C   0  0  0  0  0  0  0  0  0  0  0  0
   25.8710   10.7460   20.0070 C   0  0  0  0  0  0  0  0  0  0  0  0
   24.8260   10.6610   20.9430 C   0  0  0  0  0  0  0  0  0  0  0  0
    0.0000    0.0000    0.0000 H   0  0  0  0  0  0  0  0  0  0  0  0
    0.0000    0.0000    0.0000 H   0  0  0  0  0  0  0  0  0  0  0  0
    0.0000    0.0000    0.0000 H   0  0  0  0  0  0  0  0  0  0  0  0
    0.0000    0.0000    0.0000 H   0  0  0  0  0  0  0  0  0  0  0  0
    0.0000    0.0000    0.0000 H   0  0  0  0  0  0  0  0  0  0  0  0
    0.0000    0.0000    0.0000 H   0  0  0  0  0  0  0  0  0  0  0  0
    0.0000    0.0000    0.0000 H   0  0  0  0  0  0  0  0  0  0  0  0
    0.0000    0.0000    0.0000 H   0  0  0  0  0  0  0  0  0  0  0  0
    0.0000    0.0000    0.0000 H   0  0  0  0  0  0  0  0  0  0  0  0
    0.0000    0.0000    0.0000 H   0  0  0  0  0  0  0  0  0  0  0  0
    0.0000    0.0000    0.0000 H   0  0  0  0  0  0  0  0  0  0  0  0
    0.0000    0.0000    0.0000 H   0  0  0  0  0  0  0  0  0  0  0  0
    0.0000    0.0000    0.0000 H   0  0  0  0  0  0  0  0  0  0  0  0
    0.0000    0.0000    0.0000 H   0  0  0  0  0  0  0  0  0  0  0  0
   12.4347    5.2761    9.0795 C   0  0  0  0  0  0  0  0  0  0  0  0
   12.3608    4.2503    8.2783 N   0  0  0  0  0  0  0  0  0  0  0  0
   11.2686    3.9824    7.6276 C   0  0  0  0  0  0  0  0  0  0  0  0
   11.0658    2.9103    6.7386 C   0  0  0  0  0  0  0  0  0  0  0  0
    9.8720    2.7393    6.1190 C   0  0  0  0  0  0  0  0  0  0  0  0
    8.8070    3.5656    6.3016 C   0  0  0  0  0  0  0  0  0  0  0  0
    8.9689    4.6242    7.1636 C   0  0  0  0  0  0  0  0  0  0  0  0
   10.1990    4.8204    7.8172 C   0  0  0  0  0  0  0  0  0  0  0  0
   10.8580    5.9475    8.9352 S   0  0  0  0  0  0  0  0  0  0  0  0
   11.8729    2.1927    6.5315 H   0  0  0  0  0  0  0  0  0  0  0  0
    9.7717    1.8894    5.4390 H   0  0  0  0  0  0  0  0  0  0  0  0
    7.8886    3.3970    5.7971 H   0  0  0  0  0  0  0  0  0  0  0  0
    8.2021    5.3433    7.3884 H   0  0  0  0  0  0  0  0  0  0  0  0
  1  3  2  0
  1  4  1  0
  1  5  1  0
  2  4  1  0
  2  6  1  0
  4  9  1  0
  4 15  1  0
  5  6  1  0
  5  8  1  0
  6  7  2  3
  9 10  2  0
  9 14  1  0
 10 11  1  0
 11 12  2  0
 12 13  1  0
 13 14  2  0
 15 16  2  0
 15 20  1  0
 16 17  1  0
 17 18  2  0
 18 19  1  0
 19 20  2  0
  2 21  1  0
  7 22  1  0
  8 23  1  0
  8 24  1  0
  8 25  1  0
 10 26  1  0
 11 27  1  0
 12 28  1  0
 13 29  1  0
 14 30  1  0
 16 31  1  0
 17 32  1  0
 19 33  1  0
 20 34  1  0
 35 36  2  0
 36 37  1  0
 37 38  2  0
 38 39  1  0
 39 40  2  0
 40 41  1  0
 41 42  2  0
 42 43  1  0
 43 35  1  0
 42 37  1  0
 38 44  1  0
 39 45  1  0
 40 46  1  0
 41 47  1  0
 18 35  1  0
M  END
>  <attachment_point>  (129) 
32

>  <score>  (129) 
<NA>

$$$$
4djw
     RDKit          3D

 45 48  0  0  0  0  0  0  0  0999 V2000
   22.4950   11.8750   22.5810 C   0  0  0  0  0  0  0  0  0  0  0  0
   22.5380    9.4930   22.4640 N   0  0  0  0  0  0  0  0  0  0  0  0
   22.3600   13.0630   22.3480 O   0  0  0  0  0  0  0  0  0  0  0  0
   22.3390   10.6680   21.5610 C   0  0  0  0  0  0  0  0  0  0  0  0
   22.7860   11.3350   23.8120 N   0  0  0  0  0  0  0  0  0  0  0  0
   22.7800    9.9140   23.7010 C   0  0  0  0  0  0  0  0  0  0  0  0
   22.9970    9.1110   24.7490 N   0  0  0  0  0  0  0  0  0  0  0  0
   23.0220   12.1410   25.0180 C   0  0  0  0  0  0  0  0  0  0  0  0
   20.9020   10.6270   21.0050 C   0  0  0  0  0  0  0  0  0  0  0  0
   20.2720    9.4140   20.7470 C   0  0  0  0  0  0  0  0  0  0  0  0
   18.9690    9.3760   20.2600 C   0  0  0  0  0  0  0  0  0  0  0  0
   18.2800   10.5440   20.0210 C   0  0  0  0  0  0  0  0  0  0  0  0
   18.8920   11.7530   20.2590 C   0  0  0  0  0  0  0  0  0  0  0  0
   20.1950   11.7970   20.7440 C   0  0  0  0  0  0  0  0  0  0  0  0
   23.4880   10.6920   20.5300 C   0  0  0  0  0  0  0  0  0  0  0  0
   23.2110   10.7890   19.1730 C   0  0  0  0  0  0  0  0  0  0  0  0
   24.2350   10.8650   18.2430 C   0  0  0  0  0  0  0  0  0  0  0  0
   25.5500   10.8410   18.6560 C   0  0  0  0  0  0  0  0  0  0  0  0
   25.8710   10.7460   20.0070 C   0  0  0  0  0  0  0  0  0  0  0  0
   24.8260   10.6610   20.9430 C   0  0  0  0  0  0  0  0  0  0  0  0
    0.0000    0.0000    0.0000 H   0  0  0  0  0  0  0  0  0  0  0  0
    0.0000    0.0000    0.0000 H   0  0  0  0  0  0  0  0  0  0  0  0
    0.0000    0.0000    0.0000 H   0  0  0  0  0  0  0  0  0  0  0  0
    0.0000    0.0000    0.0000 H   0  0  0  0  0  0  0  0  0  0  0  0
    0.0000    0.0000    0.0000 H   0  0  0  0  0  0  0  0  0  0  0  0
    0.0000    0.0000    0.0000 H   0  0  0  0  0  0  0  0  0  0  0  0
    0.0000    0.0000    0.0000 H   0  0  0  0  0  0  0  0  0  0  0  0
    0.0000    0.0000    0.0000 H   0  0  0  0  0  0  0  0  0  0  0  0
    0.0000    0.0000    0.0000 H   0  0  0  0  0  0  0  0  0  0  0  0
    0.0000    0.0000    0.0000 H   0  0  0  0  0  0  0  0  0  0  0  0
    0.0000    0.0000    0.0000 H   0  0  0  0  0  0  0  0  0  0  0  0
    0.0000    0.0000    0.0000 H   0  0  0  0  0  0  0  0  0  0  0  0
    0.0000    0.0000    0.0000 H   0  0  0  0  0  0  0  0  0  0  0  0
    0.0000    0.0000    0.0000 H   0  0  0  0  0  0  0  0  0  0  0  0
   12.4270    5.2728    9.0739 C   0  0  0  0  0  0  0  0  0  0  0  0
   11.2828    6.1754    9.4241 C   0  0  0  0  0  0  0  0  0  0  0  0
    9.9948    5.8428    8.6662 C   0  0  0  0  0  0  0  0  0  0  0  0
   10.0927    5.6548   10.1276 C   0  0  0  0  0  0  0  0  0  0  0  0
   12.7803    5.3748    8.0367 H   0  0  0  0  0  0  0  0  0  0  0  0
   12.3052    4.2389    9.4130 H   0  0  0  0  0  0  0  0  0  0  0  0
   11.4890    7.2589    9.5491 H   0  0  0  0  0  0  0  0  0  0  0  0
    9.9555    4.9393    8.0512 H   0  0  0  0  0  0  0  0  0  0  0  0
    9.3904    6.6833    8.2711 H   0  0  0  0  0  0  0  0  0  0  0  0
    9.4872    6.3592   10.7352 H   0  0  0  0  0  0  0  0  0  0  0  0
   10.1512    4.6421   10.5926 H   0  0  0  0  0  0  0  0  0  0  0  0
  1  3  2  0
  1  4  1  0
  1  5  1  0
  2  4  1  0
  2  6  1  0
  4  9  1  0
  4 15  1  0
  5  6  1  0
  5  8  1  0
  6  7  2  3
  9 10  2  0
  9 14  1  0
 10 11  1  0
 11 12  2  0
 12 13  1  0
 13 14  2  0
 15 16  2  0
 15 20  1  0
 16 17  1  0
 17 18  2  0
 18 19  1  0
 19 20  2  0
  2 21  1  0
  7 22  1  0
  8 23  1  0
  8 24  1  0
  8 25  1  0
 10 26  1  0
 11 27  1  0
 12 28  1  0
 13 29  1  0
 14 30  1  0
 16 31  1  0
 17 32  1  0
 19 33  1  0
 20 34  1  0
 35 36  1  0
 36 37  1  0
 37 38  1  0
 38 36  1  0
 35 39  1  0
 35 40  1  0
 36 41  1  0
 37 42  1  0
 37 43  1  0
 38 44  1  0
 38 45  1  0
 18 35  1  0
M  END
>  <attachment_point>  (130) 
32

>  <score>  (130) 
<NA>

$$$$
4djw
     RDKit          3D

 53 56  0  0  0  0  0  0  0  0999 V2000
   22.4950   11.8750   22.5810 C   0  0  0  0  0  0  0  0  0  0  0  0
   22.5380    9.4930   22.4640 N   0  0  0  0  0  0  0  0  0  0  0  0
   22.3600   13.0630   22.3480 O   0  0  0  0  0  0  0  0  0  0  0  0
   22.3390   10.6680   21.5610 C   0  0  0  0  0  0  0  0  0  0  0  0
   22.7860   11.3350   23.8120 N   0  0  0  0  0  0  0  0  0  0  0  0
   22.7800    9.9140   23.7010 C   0  0  0  0  0  0  0  0  0  0  0  0
   22.9970    9.1110   24.7490 N   0  0  0  0  0  0  0  0  0  0  0  0
   23.0220   12.1410   25.0180 C   0  0  0  0  0  0  0  0  0  0  0  0
   20.9020   10.6270   21.0050 C   0  0  0  0  0  0  0  0  0  0  0  0
   20.2720    9.4140   20.7470 C   0  0  0  0  0  0  0  0  0  0  0  0
   18.9690    9.3760   20.2600 C   0  0  0  0  0  0  0  0  0  0  0  0
   18.2800   10.5440   20.0210 C   0  0  0  0  0  0  0  0  0  0  0  0
   18.8920   11.7530   20.2590 C   0  0  0  0  0  0  0  0  0  0  0  0
   20.1950   11.7970   20.7440 C   0  0  0  0  0  0  0  0  0  0  0  0
   23.4880   10.6920   20.5300 C   0  0  0  0  0  0  0  0  0  0  0  0
   23.2110   10.7890   19.1730 C   0  0  0  0  0  0  0  0  0  0  0  0
   24.2350   10.8650   18.2430 C   0  0  0  0  0  0  0  0  0  0  0  0
   25.5500   10.8410   18.6560 C   0  0  0  0  0  0  0  0  0  0  0  0
   25.8710   10.7460   20.0070 C   0  0  0  0  0  0  0  0  0  0  0  0
   24.8260   10.6610   20.9430 C   0  0  0  0  0  0  0  0  0  0  0  0
    0.0000    0.0000    0.0000 H   0  0  0  0  0  0  0  0  0  0  0  0
    0.0000    0.0000    0.0000 H   0  0  0  0  0  0  0  0  0  0  0  0
    0.0000    0.0000    0.0000 H   0  0  0  0  0  0  0  0  0  0  0  0
    0.0000    0.0000    0.0000 H   0  0  0  0  0  0  0  0  0  0  0  0
    0.0000    0.0000    0.0000 H   0  0  0  0  0  0  0  0  0  0  0  0
    0.0000    0.0000    0.0000 H   0  0  0  0  0  0  0  0  0  0  0  0
    0.0000    0.0000    0.0000 H   0  0  0  0  0  0  0  0  0  0  0  0
    0.0000    0.0000    0.0000 H   0  0  0  0  0  0  0  0  0  0  0  0
    0.0000    0.0000    0.0000 H   0  0  0  0  0  0  0  0  0  0  0  0
    0.0000    0.0000    0.0000 H   0  0  0  0  0  0  0  0  0  0  0  0
    0.0000    0.0000    0.0000 H   0  0  0  0  0  0  0  0  0  0  0  0
    0.0000    0.0000    0.0000 H   0  0  0  0  0  0  0  0  0  0  0  0
    0.0000    0.0000    0.0000 H   0  0  0  0  0  0  0  0  0  0  0  0
    0.0000    0.0000    0.0000 H   0  0  0  0  0  0  0  0  0  0  0  0
   12.4498    5.2825    9.0905 C   0  0  0  0  0  0  0  0  0  0  0  0
   13.0657    4.3206    8.0804 C   0  0  0  0  0  0  0  0  0  0  0  0
   14.2453    5.0811    7.4612 C   0  0  0  0  0  0  0  0  0  0  0  0
   13.6666    6.1719    6.7076 N   0  0  0  0  0  0  0  0  0  0  0  0
   14.5797    6.7864    5.7937 C   0  0  0  0  0  0  0  0  0  0  0  0
   13.1755    7.1379    7.6944 C   0  0  0  0  0  0  0  0  0  0  0  0
   11.9438    6.4801    8.3258 C   0  0  0  0  0  0  0  0  0  0  0  0
   11.6736    4.8041    9.7049 H   0  0  0  0  0  0  0  0  0  0  0  0
   13.4204    3.3925    8.5405 H   0  0  0  0  0  0  0  0  0  0  0  0
   12.3531    4.0726    7.2649 H   0  0  0  0  0  0  0  0  0  0  0  0
   14.8554    4.4416    6.8183 H   0  0  0  0  0  0  0  0  0  0  0  0
   14.8427    5.4387    8.3340 H   0  0  0  0  0  0  0  0  0  0  0  0
   15.0704    5.9990    5.1938 H   0  0  0  0  0  0  0  0  0  0  0  0
   15.3052    7.4571    6.2955 H   0  0  0  0  0  0  0  0  0  0  0  0
   13.9868    7.4188    5.0961 H   0  0  0  0  0  0  0  0  0  0  0  0
   12.8994    8.0661    7.1832 H   0  0  0  0  0  0  0  0  0  0  0  0
   13.9469    7.2582    8.4752 H   0  0  0  0  0  0  0  0  0  0  0  0
   11.4733    7.2384    8.9597 H   0  0  0  0  0  0  0  0  0  0  0  0
   11.3021    6.1827    7.4524 H   0  0  0  0  0  0  0  0  0  0  0  0
  1  3  2  0
  1  4  1  0
  1  5  1  0
  2  4  1  0
  2  6  1  0
  4  9  1  0
  4 15  1  0
  5  6  1  0
  5  8  1  0
  6  7  2  3
  9 10  2  0
  9 14  1  0
 10 11  1  0
 11 12  2  0
 12 13  1  0
 13 14  2  0
 15 16  2  0
 15 20  1  0
 16 17  1  0
 17 18  2  0
 18 19  1  0
 19 20  2  0
  2 21  1  0
  7 22  1  0
  8 23  1  0
  8 24  1  0
  8 25  1  0
 10 26  1  0
 11 27  1  0
 12 28  1  0
 13 29  1  0
 14 30  1  0
 16 31  1  0
 17 32  1  0
 19 33  1  0
 20 34  1  0
 35 36  1  0
 36 37  1  0
 37 38  1  0
 38 39  1  0
 38 40  1  0
 40 41  1  0
 41 35  1  0
 35 42  1  0
 36 43  1  0
 36 44  1  0
 37 45  1  0
 37 46  1  0
 39 47  1  0
 39 48  1  0
 39 49  1  0
 40 50  1  0
 40 51  1  0
 41 52  1  0
 41 53  1  0
 18 35  1  0
M  END
>  <attachment_point>  (131) 
32

>  <score>  (131) 
<NA>

$$$$
4djw
     RDKit          3D

 48 51  0  0  0  0  0  0  0  0999 V2000
   22.4950   11.8750   22.5810 C   0  0  0  0  0  0  0  0  0  0  0  0
   22.5380    9.4930   22.4640 N   0  0  0  0  0  0  0  0  0  0  0  0
   22.3600   13.0630   22.3480 O   0  0  0  0  0  0  0  0  0  0  0  0
   22.3390   10.6680   21.5610 C   0  0  0  0  0  0  0  0  0  0  0  0
   22.7860   11.3350   23.8120 N   0  0  0  0  0  0  0  0  0  0  0  0
   22.7800    9.9140   23.7010 C   0  0  0  0  0  0  0  0  0  0  0  0
   22.9970    9.1110   24.7490 N   0  0  0  0  0  0  0  0  0  0  0  0
   23.0220   12.1410   25.0180 C   0  0  0  0  0  0  0  0  0  0  0  0
   20.9020   10.6270   21.0050 C   0  0  0  0  0  0  0  0  0  0  0  0
   20.2720    9.4140   20.7470 C   0  0  0  0  0  0  0  0  0  0  0  0
   18.9690    9.3760   20.2600 C   0  0  0  0  0  0  0  0  0  0  0  0
   18.2800   10.5440   20.0210 C   0  0  0  0  0  0  0  0  0  0  0  0
   18.8920   11.7530   20.2590 C   0  0  0  0  0  0  0  0  0  0  0  0
   20.1950   11.7970   20.7440 C   0  0  0  0  0  0  0  0  0  0  0  0
   23.4880   10.6920   20.5300 C   0  0  0  0  0  0  0  0  0  0  0  0
   23.2110   10.7890   19.1730 C   0  0  0  0  0  0  0  0  0  0  0  0
   24.2350   10.8650   18.2430 C   0  0  0  0  0  0  0  0  0  0  0  0
   25.5500   10.8410   18.6560 C   0  0  0  0  0  0  0  0  0  0  0  0
   25.8710   10.7460   20.0070 C   0  0  0  0  0  0  0  0  0  0  0  0
   24.8260   10.6610   20.9430 C   0  0  0  0  0  0  0  0  0  0  0  0
    0.0000    0.0000    0.0000 H   0  0  0  0  0  0  0  0  0  0  0  0
    0.0000    0.0000    0.0000 H   0  0  0  0  0  0  0  0  0  0  0  0
    0.0000    0.0000    0.0000 H   0  0  0  0  0  0  0  0  0  0  0  0
    0.0000    0.0000    0.0000 H   0  0  0  0  0  0  0  0  0  0  0  0
    0.0000    0.0000    0.0000 H   0  0  0  0  0  0  0  0  0  0  0  0
    0.0000    0.0000    0.0000 H   0  0  0  0  0  0  0  0  0  0  0  0
    0.0000    0.0000    0.0000 H   0  0  0  0  0  0  0  0  0  0  0  0
    0.0000    0.0000    0.0000 H   0  0  0  0  0  0  0  0  0  0  0  0
    0.0000    0.0000    0.0000 H   0  0  0  0  0  0  0  0  0  0  0  0
    0.0000    0.0000    0.0000 H   0  0  0  0  0  0  0  0  0  0  0  0
    0.0000    0.0000    0.0000 H   0  0  0  0  0  0  0  0  0  0  0  0
    0.0000    0.0000    0.0000 H   0  0  0  0  0  0  0  0  0  0  0  0
    0.0000    0.0000    0.0000 H   0  0  0  0  0  0  0  0  0  0  0  0
    0.0000    0.0000    0.0000 H   0  0  0  0  0  0  0  0  0  0  0  0
   12.4476    5.2816    9.0890 C   0  0  0  0  0  0  0  0  0  0  0  0
   11.4471    4.4567    9.5308 C   0  0  0  0  0  0  0  0  0  0  0  0
   10.4121    4.0381    8.7145 C   0  0  0  0  0  0  0  0  0  0  0  0
   10.4149    4.4842    7.4130 C   0  0  0  0  0  0  0  0  0  0  0  0
   11.4136    5.3203    6.9343 C   0  0  0  0  0  0  0  0  0  0  0  0
   11.4209    5.8040    5.5316 C   0  0  0  0  0  0  0  0  0  0  0  0
   10.5793    5.0669    4.7355 F   0  0  0  0  0  0  0  0  0  0  0  0
   11.0969    7.1427    5.5180 F   0  0  0  0  0  0  0  0  0  0  0  0
   12.7020    5.7076    4.9919 F   0  0  0  0  0  0  0  0  0  0  0  0
   12.4193    5.7081    7.7831 C   0  0  0  0  0  0  0  0  0  0  0  0
   11.4764    4.1245   10.5617 H   0  0  0  0  0  0  0  0  0  0  0  0
    9.6275    3.3918    9.0592 H   0  0  0  0  0  0  0  0  0  0  0  0
    9.6298    4.1990    6.6987 H   0  0  0  0  0  0  0  0  0  0  0  0
   13.1963    6.3687    7.3816 H   0  0  0  0  0  0  0  0  0  0  0  0
  1  3  2  0
  1  4  1  0
  1  5  1  0
  2  4  1  0
  2  6  1  0
  4  9  1  0
  4 15  1  0
  5  6  1  0
  5  8  1  0
  6  7  2  3
  9 10  2  0
  9 14  1  0
 10 11  1  0
 11 12  2  0
 12 13  1  0
 13 14  2  0
 15 16  2  0
 15 20  1  0
 16 17  1  0
 17 18  2  0
 18 19  1  0
 19 20  2  0
  2 21  1  0
  7 22  1  0
  8 23  1  0
  8 24  1  0
  8 25  1  0
 10 26  1  0
 11 27  1  0
 12 28  1  0
 13 29  1  0
 14 30  1  0
 16 31  1  0
 17 32  1  0
 19 33  1  0
 20 34  1  0
 35 36  2  0
 36 37  1  0
 37 38  2  0
 38 39  1  0
 39 40  1  0
 40 41  1  0
 40 42  1  0
 40 43  1  0
 39 44  2  0
 44 35  1  0
 36 45  1  0
 37 46  1  0
 38 47  1  0
 44 48  1  0
 18 35  1  0
M  END
>  <attachment_point>  (132) 
32

>  <score>  (132) 
<NA>

$$$$
4djw
     RDKit          3D

 52 54  0  0  0  0  0  0  0  0999 V2000
   22.4950   11.8750   22.5810 C   0  0  0  0  0  0  0  0  0  0  0  0
   22.5380    9.4930   22.4640 N   0  0  0  0  0  0  0  0  0  0  0  0
   22.3600   13.0630   22.3480 O   0  0  0  0  0  0  0  0  0  0  0  0
   22.3390   10.6680   21.5610 C   0  0  0  0  0  0  0  0  0  0  0  0
   22.7860   11.3350   23.8120 N   0  0  0  0  0  0  0  0  0  0  0  0
   22.7800    9.9140   23.7010 C   0  0  0  0  0  0  0  0  0  0  0  0
   22.9970    9.1110   24.7490 N   0  0  0  0  0  0  0  0  0  0  0  0
   23.0220   12.1410   25.0180 C   0  0  0  0  0  0  0  0  0  0  0  0
   20.9020   10.6270   21.0050 C   0  0  0  0  0  0  0  0  0  0  0  0
   20.2720    9.4140   20.7470 C   0  0  0  0  0  0  0  0  0  0  0  0
   18.9690    9.3760   20.2600 C   0  0  0  0  0  0  0  0  0  0  0  0
   18.2800   10.5440   20.0210 C   0  0  0  0  0  0  0  0  0  0  0  0
   18.8920   11.7530   20.2590 C   0  0  0  0  0  0  0  0  0  0  0  0
   20.1950   11.7970   20.7440 C   0  0  0  0  0  0  0  0  0  0  0  0
   23.4880   10.6920   20.5300 C   0  0  0  0  0  0  0  0  0  0  0  0
   23.2110   10.7890   19.1730 C   0  0  0  0  0  0  0  0  0  0  0  0
   24.2350   10.8650   18.2430 C   0  0  0  0  0  0  0  0  0  0  0  0
   25.5500   10.8410   18.6560 C   0  0  0  0  0  0  0  0  0  0  0  0
   25.8710   10.7460   20.0070 C   0  0  0  0  0  0  0  0  0  0  0  0
   24.8260   10.6610   20.9430 C   0  0  0  0  0  0  0  0  0  0  0  0
    0.0000    0.0000    0.0000 H   0  0  0  0  0  0  0  0  0  0  0  0
    0.0000    0.0000    0.0000 H   0  0  0  0  0  0  0  0  0  0  0  0
    0.0000    0.0000    0.0000 H   0  0  0  0  0  0  0  0  0  0  0  0
    0.0000    0.0000    0.0000 H   0  0  0  0  0  0  0  0  0  0  0  0
    0.0000    0.0000    0.0000 H   0  0  0  0  0  0  0  0  0  0  0  0
    0.0000    0.0000    0.0000 H   0  0  0  0  0  0  0  0  0  0  0  0
    0.0000    0.0000    0.0000 H   0  0  0  0  0  0  0  0  0  0  0  0
    0.0000    0.0000    0.0000 H   0  0  0  0  0  0  0  0  0  0  0  0
    0.0000    0.0000    0.0000 H   0  0  0  0  0  0  0  0  0  0  0  0
    0.0000    0.0000    0.0000 H   0  0  0  0  0  0  0  0  0  0  0  0
    0.0000    0.0000    0.0000 H   0  0  0  0  0  0  0  0  0  0  0  0
    0.0000    0.0000    0.0000 H   0  0  0  0  0  0  0  0  0  0  0  0
    0.0000    0.0000    0.0000 H   0  0  0  0  0  0  0  0  0  0  0  0
    0.0000    0.0000    0.0000 H   0  0  0  0  0  0  0  0  0  0  0  0
   12.4561    5.2852    9.0952 C   0  0  0  0  0  0  0  0  0  0  0  0
   12.9078    4.4235    8.0285 N   0  0  0  0  0  0  0  0  0  0  0  0
   11.8319    3.9434    7.2077 C   0  0  0  0  0  0  0  0  0  0  0  0
   12.2425    3.0361    6.0927 C   0  0  0  0  0  0  0  0  0  0  0  0
   14.0383    4.9471    7.3220 C   0  0  0  0  0  0  0  0  0  0  0  0
   15.2282    4.9257    8.2800 C   0  0  0  0  0  0  0  0  0  0  0  0
   11.7906    6.0723    8.6838 H   0  0  0  0  0  0  0  0  0  0  0  0
   11.8253    4.6597    9.7749 H   0  0  0  0  0  0  0  0  0  0  0  0
   11.1553    3.3555    7.8971 H   0  0  0  0  0  0  0  0  0  0  0  0
   11.1778    4.7446    6.7957 H   0  0  0  0  0  0  0  0  0  0  0  0
   12.8633    3.4999    5.3292 H   0  0  0  0  0  0  0  0  0  0  0  0
   12.7719    2.1560    6.5299 H   0  0  0  0  0  0  0  0  0  0  0  0
   11.3127    2.6079    5.6274 H   0  0  0  0  0  0  0  0  0  0  0  0
   13.9234    5.9437    6.9021 H   0  0  0  0  0  0  0  0  0  0  0  0
   14.3230    4.2325    6.5189 H   0  0  0  0  0  0  0  0  0  0  0  0
   14.9194    5.3384    9.2610 H   0  0  0  0  0  0  0  0  0  0  0  0
   15.5910    3.8970    8.4704 H   0  0  0  0  0  0  0  0  0  0  0  0
   16.0683    5.4705    7.8054 H   0  0  0  0  0  0  0  0  0  0  0  0
  1  3  2  0
  1  4  1  0
  1  5  1  0
  2  4  1  0
  2  6  1  0
  4  9  1  0
  4 15  1  0
  5  6  1  0
  5  8  1  0
  6  7  2  3
  9 10  2  0
  9 14  1  0
 10 11  1  0
 11 12  2  0
 12 13  1  0
 13 14  2  0
 15 16  2  0
 15 20  1  0
 16 17  1  0
 17 18  2  0
 18 19  1  0
 19 20  2  0
  2 21  1  0
  7 22  1  0
  8 23  1  0
  8 24  1  0
  8 25  1  0
 10 26  1  0
 11 27  1  0
 12 28  1  0
 13 29  1  0
 14 30  1  0
 16 31  1  0
 17 32  1  0
 19 33  1  0
 20 34  1  0
 35 36  1  0
 36 37  1  0
 37 38  1  0
 36 39  1  0
 39 40  1  0
 35 41  1  0
 35 42  1  0
 37 43  1  0
 37 44  1  0
 38 45  1  0
 38 46  1  0
 38 47  1  0
 39 48  1  0
 39 49  1  0
 40 50  1  0
 40 51  1  0
 40 52  1  0
 18 35  1  0
M  END
>  <attachment_point>  (133) 
32

>  <score>  (133) 
<NA>

$$$$
4djw
     RDKit          3D

 48 52  0  0  0  0  0  0  0  0999 V2000
   22.4950   11.8750   22.5810 C   0  0  0  0  0  0  0  0  0  0  0  0
   22.5380    9.4930   22.4640 N   0  0  0  0  0  0  0  0  0  0  0  0
   22.3600   13.0630   22.3480 O   0  0  0  0  0  0  0  0  0  0  0  0
   22.3390   10.6680   21.5610 C   0  0  0  0  0  0  0  0  0  0  0  0
   22.7860   11.3350   23.8120 N   0  0  0  0  0  0  0  0  0  0  0  0
   22.7800    9.9140   23.7010 C   0  0  0  0  0  0  0  0  0  0  0  0
   22.9970    9.1110   24.7490 N   0  0  0  0  0  0  0  0  0  0  0  0
   23.0220   12.1410   25.0180 C   0  0  0  0  0  0  0  0  0  0  0  0
   20.9020   10.6270   21.0050 C   0  0  0  0  0  0  0  0  0  0  0  0
   20.2720    9.4140   20.7470 C   0  0  0  0  0  0  0  0  0  0  0  0
   18.9690    9.3760   20.2600 C   0  0  0  0  0  0  0  0  0  0  0  0
   18.2800   10.5440   20.0210 C   0  0  0  0  0  0  0  0  0  0  0  0
   18.8920   11.7530   20.2590 C   0  0  0  0  0  0  0  0  0  0  0  0
   20.1950   11.7970   20.7440 C   0  0  0  0  0  0  0  0  0  0  0  0
   23.4880   10.6920   20.5300 C   0  0  0  0  0  0  0  0  0  0  0  0
   23.2110   10.7890   19.1730 C   0  0  0  0  0  0  0  0  0  0  0  0
   24.2350   10.8650   18.2430 C   0  0  0  0  0  0  0  0  0  0  0  0
   25.5500   10.8410   18.6560 C   0  0  0  0  0  0  0  0  0  0  0  0
   25.8710   10.7460   20.0070 C   0  0  0  0  0  0  0  0  0  0  0  0
   24.8260   10.6610   20.9430 C   0  0  0  0  0  0  0  0  0  0  0  0
    0.0000    0.0000    0.0000 H   0  0  0  0  0  0  0  0  0  0  0  0
    0.0000    0.0000    0.0000 H   0  0  0  0  0  0  0  0  0  0  0  0
    0.0000    0.0000    0.0000 H   0  0  0  0  0  0  0  0  0  0  0  0
    0.0000    0.0000    0.0000 H   0  0  0  0  0  0  0  0  0  0  0  0
    0.0000    0.0000    0.0000 H   0  0  0  0  0  0  0  0  0  0  0  0
    0.0000    0.0000    0.0000 H   0  0  0  0  0  0  0  0  0  0  0  0
    0.0000    0.0000    0.0000 H   0  0  0  0  0  0  0  0  0  0  0  0
    0.0000    0.0000    0.0000 H   0  0  0  0  0  0  0  0  0  0  0  0
    0.0000    0.0000    0.0000 H   0  0  0  0  0  0  0  0  0  0  0  0
    0.0000    0.0000    0.0000 H   0  0  0  0  0  0  0  0  0  0  0  0
    0.0000    0.0000    0.0000 H   0  0  0  0  0  0  0  0  0  0  0  0
    0.0000    0.0000    0.0000 H   0  0  0  0  0  0  0  0  0  0  0  0
    0.0000    0.0000    0.0000 H   0  0  0  0  0  0  0  0  0  0  0  0
    0.0000    0.0000    0.0000 H   0  0  0  0  0  0  0  0  0  0  0  0
   12.4215    5.2705    9.0699 C   0  0  0  0  0  0  0  0  0  0  0  0
   12.5106    4.4931    7.9936 N   0  0  0  0  0  0  0  0  0  0  0  0
   11.2636    4.2719    7.5143 C   0  0  0  0  0  0  0  0  0  0  0  0
   10.7709    3.5470    6.4325 C   0  0  0  0  0  0  0  0  0  0  0  0
    9.4235    3.4787    6.1533 C   0  0  0  0  0  0  0  0  0  0  0  0
    8.5714    4.1547    6.9839 C   0  0  0  0  0  0  0  0  0  0  0  0
    9.0331    4.8722    8.0512 C   0  0  0  0  0  0  0  0  0  0  0  0
   10.3908    4.9456    8.3389 C   0  0  0  0  0  0  0  0  0  0  0  0
   11.1331    5.5465    9.2810 N   0  0  0  0  0  0  0  0  0  0  0  0
   11.4963    3.0354    5.8146 H   0  0  0  0  0  0  0  0  0  0  0  0
    9.0802    2.8942    5.2883 H   0  0  0  0  0  0  0  0  0  0  0  0
    7.5171    4.0993    6.7629 H   0  0  0  0  0  0  0  0  0  0  0  0
    8.3501    5.3951    8.6906 H   0  0  0  0  0  0  0  0  0  0  0  0
   10.7249    6.1256   10.0364 H   0  0  0  0  0  0  0  0  0  0  0  0
  1  3  2  0
  1  4  1  0
  1  5  1  0
  2  4  1  0
  2  6  1  0
  4  9  1  0
  4 15  1  0
  5  6  1  0
  5  8  1  0
  6  7  2  3
  9 10  2  0
  9 14  1  0
 10 11  1  0
 11 12  2  0
 12 13  1  0
 13 14  2  0
 15 16  2  0
 15 20  1  0
 16 17  1  0
 17 18  2  0
 18 19  1  0
 19 20  2  0
  2 21  1  0
  7 22  1  0
  8 23  1  0
  8 24  1  0
  8 25  1  0
 10 26  1  0
 11 27  1  0
 12 28  1  0
 13 29  1  0
 14 30  1  0
 16 31  1  0
 17 32  1  0
 19 33  1  0
 20 34  1  0
 35 36  2  0
 36 37  1  0
 37 38  2  0
 38 39  1  0
 39 40  2  0
 40 41  1  0
 41 42  2  0
 42 43  1  0
 43 35  1  0
 42 37  1  0
 38 44  1  0
 39 45  1  0
 40 46  1  0
 41 47  1  0
 43 48  1  0
 18 35  1  0
M  END
>  <attachment_point>  (134) 
32

>  <score>  (134) 
<NA>

$$$$
4djw
     RDKit          3D

 48 50  0  0  0  0  0  0  0  0999 V2000
   22.4950   11.8750   22.5810 C   0  0  0  0  0  0  0  0  0  0  0  0
   22.5380    9.4930   22.4640 N   0  0  0  0  0  0  0  0  0  0  0  0
   22.3600   13.0630   22.3480 O   0  0  0  0  0  0  0  0  0  0  0  0
   22.3390   10.6680   21.5610 C   0  0  0  0  0  0  0  0  0  0  0  0
   22.7860   11.3350   23.8120 N   0  0  0  0  0  0  0  0  0  0  0  0
   22.7800    9.9140   23.7010 C   0  0  0  0  0  0  0  0  0  0  0  0
   22.9970    9.1110   24.7490 N   0  0  0  0  0  0  0  0  0  0  0  0
   23.0220   12.1410   25.0180 C   0  0  0  0  0  0  0  0  0  0  0  0
   20.9020   10.6270   21.0050 C   0  0  0  0  0  0  0  0  0  0  0  0
   20.2720    9.4140   20.7470 C   0  0  0  0  0  0  0  0  0  0  0  0
   18.9690    9.3760   20.2600 C   0  0  0  0  0  0  0  0  0  0  0  0
   18.2800   10.5440   20.0210 C   0  0  0  0  0  0  0  0  0  0  0  0
   18.8920   11.7530   20.2590 C   0  0  0  0  0  0  0  0  0  0  0  0
   20.1950   11.7970   20.7440 C   0  0  0  0  0  0  0  0  0  0  0  0
   23.4880   10.6920   20.5300 C   0  0  0  0  0  0  0  0  0  0  0  0
   23.2110   10.7890   19.1730 C   0  0  0  0  0  0  0  0  0  0  0  0
   24.2350   10.8650   18.2430 C   0  0  0  0  0  0  0  0  0  0  0  0
   25.5500   10.8410   18.6560 C   0  0  0  0  0  0  0  0  0  0  0  0
   25.8710   10.7460   20.0070 C   0  0  0  0  0  0  0  0  0  0  0  0
   24.8260   10.6610   20.9430 C   0  0  0  0  0  0  0  0  0  0  0  0
    0.0000    0.0000    0.0000 H   0  0  0  0  0  0  0  0  0  0  0  0
    0.0000    0.0000    0.0000 H   0  0  0  0  0  0  0  0  0  0  0  0
    0.0000    0.0000    0.0000 H   0  0  0  0  0  0  0  0  0  0  0  0
    0.0000    0.0000    0.0000 H   0  0  0  0  0  0  0  0  0  0  0  0
    0.0000    0.0000    0.0000 H   0  0  0  0  0  0  0  0  0  0  0  0
    0.0000    0.0000    0.0000 H   0  0  0  0  0  0  0  0  0  0  0  0
    0.0000    0.0000    0.0000 H   0  0  0  0  0  0  0  0  0  0  0  0
    0.0000    0.0000    0.0000 H   0  0  0  0  0  0  0  0  0  0  0  0
    0.0000    0.0000    0.0000 H   0  0  0  0  0  0  0  0  0  0  0  0
    0.0000    0.0000    0.0000 H   0  0  0  0  0  0  0  0  0  0  0  0
    0.0000    0.0000    0.0000 H   0  0  0  0  0  0  0  0  0  0  0  0
    0.0000    0.0000    0.0000 H   0  0  0  0  0  0  0  0  0  0  0  0
    0.0000    0.0000    0.0000 H   0  0  0  0  0  0  0  0  0  0  0  0
    0.0000    0.0000    0.0000 H   0  0  0  0  0  0  0  0  0  0  0  0
   12.3984    5.2607    9.0530 C   0  0  0  0  0  0  0  0  0  0  0  0
   11.3615    5.8630    9.1672 O   0  0  0  0  0  0  0  0  0  0  0  0
   12.6914    4.1583    8.2414 N   0  0  0  0  0  0  0  0  0  0  0  0
   11.6679    3.5767    7.3710 C   0  0  0  0  0  0  0  0  0  0  0  0
   12.1780    3.5714    5.9437 C   0  0  0  0  0  0  0  0  0  0  0  0
   11.4831    2.0974    7.7200 C   0  0  0  0  0  0  0  0  0  0  0  0
   13.6240    3.6946    8.2041 H   0  0  0  0  0  0  0  0  0  0  0  0
   10.7059    4.1222    7.4657 H   0  0  0  0  0  0  0  0  0  0  0  0
   13.2512    3.3251    5.9727 H   0  0  0  0  0  0  0  0  0  0  0  0
   11.6903    2.7478    5.3560 H   0  0  0  0  0  0  0  0  0  0  0  0
   11.9378    4.5178    5.4459 H   0  0  0  0  0  0  0  0  0  0  0  0
   10.7460    1.6949    6.9926 H   0  0  0  0  0  0  0  0  0  0  0  0
   12.4478    1.5922    7.4828 H   0  0  0  0  0  0  0  0  0  0  0  0
   11.1662    1.9637    8.7674 H   0  0  0  0  0  0  0  0  0  0  0  0
  1  3  2  0
  1  4  1  0
  1  5  1  0
  2  4  1  0
  2  6  1  0
  4  9  1  0
  4 15  1  0
  5  6  1  0
  5  8  1  0
  6  7  2  3
  9 10  2  0
  9 14  1  0
 10 11  1  0
 11 12  2  0
 12 13  1  0
 13 14  2  0
 15 16  2  0
 15 20  1  0
 16 17  1  0
 17 18  2  0
 18 19  1  0
 19 20  2  0
  2 21  1  0
  7 22  1  0
  8 23  1  0
  8 24  1  0
  8 25  1  0
 10 26  1  0
 11 27  1  0
 12 28  1  0
 13 29  1  0
 14 30  1  0
 16 31  1  0
 17 32  1  0
 19 33  1  0
 20 34  1  0
 35 36  2  0
 35 37  1  0
 37 38  1  0
 38 39  1  0
 38 40  1  0
 37 41  1  0
 38 42  1  0
 39 43  1  0
 39 44  1  0
 39 45  1  0
 40 46  1  0
 40 47  1  0
 40 48  1  0
 18 35  1  0
M  END
>  <attachment_point>  (135) 
32

>  <score>  (135) 
<NA>

$$$$
4djw
     RDKit          3D

 44 46  0  0  0  0  0  0  0  0999 V2000
   22.4950   11.8750   22.5810 C   0  0  0  0  0  0  0  0  0  0  0  0
   22.5380    9.4930   22.4640 N   0  0  0  0  0  0  0  0  0  0  0  0
   22.3600   13.0630   22.3480 O   0  0  0  0  0  0  0  0  0  0  0  0
   22.3390   10.6680   21.5610 C   0  0  0  0  0  0  0  0  0  0  0  0
   22.7860   11.3350   23.8120 N   0  0  0  0  0  0  0  0  0  0  0  0
   22.7800    9.9140   23.7010 C   0  0  0  0  0  0  0  0  0  0  0  0
   22.9970    9.1110   24.7490 N   0  0  0  0  0  0  0  0  0  0  0  0
   23.0220   12.1410   25.0180 C   0  0  0  0  0  0  0  0  0  0  0  0
   20.9020   10.6270   21.0050 C   0  0  0  0  0  0  0  0  0  0  0  0
   20.2720    9.4140   20.7470 C   0  0  0  0  0  0  0  0  0  0  0  0
   18.9690    9.3760   20.2600 C   0  0  0  0  0  0  0  0  0  0  0  0
   18.2800   10.5440   20.0210 C   0  0  0  0  0  0  0  0  0  0  0  0
   18.8920   11.7530   20.2590 C   0  0  0  0  0  0  0  0  0  0  0  0
   20.1950   11.7970   20.7440 C   0  0  0  0  0  0  0  0  0  0  0  0
   23.4880   10.6920   20.5300 C   0  0  0  0  0  0  0  0  0  0  0  0
   23.2110   10.7890   19.1730 C   0  0  0  0  0  0  0  0  0  0  0  0
   24.2350   10.8650   18.2430 C   0  0  0  0  0  0  0  0  0  0  0  0
   25.5500   10.8410   18.6560 C   0  0  0  0  0  0  0  0  0  0  0  0
   25.8710   10.7460   20.0070 C   0  0  0  0  0  0  0  0  0  0  0  0
   24.8260   10.6610   20.9430 C   0  0  0  0  0  0  0  0  0  0  0  0
    0.0000    0.0000    0.0000 H   0  0  0  0  0  0  0  0  0  0  0  0
    0.0000    0.0000    0.0000 H   0  0  0  0  0  0  0  0  0  0  0  0
    0.0000    0.0000    0.0000 H   0  0  0  0  0  0  0  0  0  0  0  0
    0.0000    0.0000    0.0000 H   0  0  0  0  0  0  0  0  0  0  0  0
    0.0000    0.0000    0.0000 H   0  0  0  0  0  0  0  0  0  0  0  0
    0.0000    0.0000    0.0000 H   0  0  0  0  0  0  0  0  0  0  0  0
    0.0000    0.0000    0.0000 H   0  0  0  0  0  0  0  0  0  0  0  0
    0.0000    0.0000    0.0000 H   0  0  0  0  0  0  0  0  0  0  0  0
    0.0000    0.0000    0.0000 H   0  0  0  0  0  0  0  0  0  0  0  0
    0.0000    0.0000    0.0000 H   0  0  0  0  0  0  0  0  0  0  0  0
    0.0000    0.0000    0.0000 H   0  0  0  0  0  0  0  0  0  0  0  0
    0.0000    0.0000    0.0000 H   0  0  0  0  0  0  0  0  0  0  0  0
    0.0000    0.0000    0.0000 H   0  0  0  0  0  0  0  0  0  0  0  0
    0.0000    0.0000    0.0000 H   0  0  0  0  0  0  0  0  0  0  0  0
   12.4422    5.2793    9.0850 N   0  0  0  0  0  0  0  0  0  0  0  0
   12.6518    5.8271    7.7875 C   0  0  0  0  0  0  0  0  0  0  0  0
   12.6835    7.3407    7.7675 C   0  0  0  0  0  0  0  0  0  0  0  0
   13.6834    7.8649    8.5532 O   0  0  0  0  0  0  0  0  0  0  0  0
   11.6145    5.6219    9.5808 H   0  0  0  0  0  0  0  0  0  0  0  0
   13.5941    5.4600    7.3626 H   0  0  0  0  0  0  0  0  0  0  0  0
   11.8378    5.5003    7.1206 H   0  0  0  0  0  0  0  0  0  0  0  0
   12.8555    7.6881    6.7270 H   0  0  0  0  0  0  0  0  0  0  0  0
   11.7129    7.7707    8.0935 H   0  0  0  0  0  0  0  0  0  0  0  0
   14.5733    7.5978    8.2436 H   0  0  0  0  0  0  0  0  0  0  0  0
  1  3  2  0
  1  4  1  0
  1  5  1  0
  2  4  1  0
  2  6  1  0
  4  9  1  0
  4 15  1  0
  5  6  1  0
  5  8  1  0
  6  7  2  3
  9 10  2  0
  9 14  1  0
 10 11  1  0
 11 12  2  0
 12 13  1  0
 13 14  2  0
 15 16  2  0
 15 20  1  0
 16 17  1  0
 17 18  2  0
 18 19  1  0
 19 20  2  0
  2 21  1  0
  7 22  1  0
  8 23  1  0
  8 24  1  0
  8 25  1  0
 10 26  1  0
 11 27  1  0
 12 28  1  0
 13 29  1  0
 14 30  1  0
 16 31  1  0
 17 32  1  0
 19 33  1  0
 20 34  1  0
 35 36  1  0
 36 37  1  0
 37 38  1  0
 35 39  1  0
 36 40  1  0
 36 41  1  0
 37 42  1  0
 37 43  1  0
 38 44  1  0
 18 35  1  0
M  END
>  <attachment_point>  (136) 
32

>  <score>  (136) 
<NA>

$$$$
4djw
     RDKit          3D

 51 55  0  0  0  0  0  0  0  0999 V2000
   22.4950   11.8750   22.5810 C   0  0  0  0  0  0  0  0  0  0  0  0
   22.5380    9.4930   22.4640 N   0  0  0  0  0  0  0  0  0  0  0  0
   22.3600   13.0630   22.3480 O   0  0  0  0  0  0  0  0  0  0  0  0
   22.3390   10.6680   21.5610 C   0  0  0  0  0  0  0  0  0  0  0  0
   22.7860   11.3350   23.8120 N   0  0  0  0  0  0  0  0  0  0  0  0
   22.7800    9.9140   23.7010 C   0  0  0  0  0  0  0  0  0  0  0  0
   22.9970    9.1110   24.7490 N   0  0  0  0  0  0  0  0  0  0  0  0
   23.0220   12.1410   25.0180 C   0  0  0  0  0  0  0  0  0  0  0  0
   20.9020   10.6270   21.0050 C   0  0  0  0  0  0  0  0  0  0  0  0
   20.2720    9.4140   20.7470 C   0  0  0  0  0  0  0  0  0  0  0  0
   18.9690    9.3760   20.2600 C   0  0  0  0  0  0  0  0  0  0  0  0
   18.2800   10.5440   20.0210 C   0  0  0  0  0  0  0  0  0  0  0  0
   18.8920   11.7530   20.2590 C   0  0  0  0  0  0  0  0  0  0  0  0
   20.1950   11.7970   20.7440 C   0  0  0  0  0  0  0  0  0  0  0  0
   23.4880   10.6920   20.5300 C   0  0  0  0  0  0  0  0  0  0  0  0
   23.2110   10.7890   19.1730 C   0  0  0  0  0  0  0  0  0  0  0  0
   24.2350   10.8650   18.2430 C   0  0  0  0  0  0  0  0  0  0  0  0
   25.5500   10.8410   18.6560 C   0  0  0  0  0  0  0  0  0  0  0  0
   25.8710   10.7460   20.0070 C   0  0  0  0  0  0  0  0  0  0  0  0
   24.8260   10.6610   20.9430 C   0  0  0  0  0  0  0  0  0  0  0  0
    0.0000    0.0000    0.0000 H   0  0  0  0  0  0  0  0  0  0  0  0
    0.0000    0.0000    0.0000 H   0  0  0  0  0  0  0  0  0  0  0  0
    0.0000    0.0000    0.0000 H   0  0  0  0  0  0  0  0  0  0  0  0
    0.0000    0.0000    0.0000 H   0  0  0  0  0  0  0  0  0  0  0  0
    0.0000    0.0000    0.0000 H   0  0  0  0  0  0  0  0  0  0  0  0
    0.0000    0.0000    0.0000 H   0  0  0  0  0  0  0  0  0  0  0  0
    0.0000    0.0000    0.0000 H   0  0  0  0  0  0  0  0  0  0  0  0
    0.0000    0.0000    0.0000 H   0  0  0  0  0  0  0  0  0  0  0  0
    0.0000    0.0000    0.0000 H   0  0  0  0  0  0  0  0  0  0  0  0
    0.0000    0.0000    0.0000 H   0  0  0  0  0  0  0  0  0  0  0  0
    0.0000    0.0000    0.0000 H   0  0  0  0  0  0  0  0  0  0  0  0
    0.0000    0.0000    0.0000 H   0  0  0  0  0  0  0  0  0  0  0  0
    0.0000    0.0000    0.0000 H   0  0  0  0  0  0  0  0  0  0  0  0
    0.0000    0.0000    0.0000 H   0  0  0  0  0  0  0  0  0  0  0  0
   12.4135    5.2671    9.0640 C   0  0  0  0  0  0  0  0  0  0  0  0
   11.1546    5.6737    9.3115 C   0  0  0  0  0  0  0  0  0  0  0  0
   10.1325    5.1793    8.4898 C   0  0  0  0  0  0  0  0  0  0  0  0
   10.4293    4.3062    7.4676 C   0  0  0  0  0  0  0  0  0  0  0  0
   11.7219    3.8962    7.2228 C   0  0  0  0  0  0  0  0  0  0  0  0
   12.7143    4.4074    8.0592 C   0  0  0  0  0  0  0  0  0  0  0  0
   12.0200    3.0114    6.1864 O   0  0  0  0  0  0  0  0  0  0  0  0
   11.1007    3.0359    5.0839 C   0  0  0  0  0  0  0  0  0  0  0  0
    9.7212    2.8161    5.6898 C   0  0  0  0  0  0  0  0  0  0  0  0
    9.4131    3.8126    6.6482 O   0  0  0  0  0  0  0  0  0  0  0  0
   10.9512    6.3605   10.1216 H   0  0  0  0  0  0  0  0  0  0  0  0
    9.1396    5.5274    8.7189 H   0  0  0  0  0  0  0  0  0  0  0  0
   13.7250    4.0867    7.8677 H   0  0  0  0  0  0  0  0  0  0  0  0
   11.2930    2.2486    4.3588 H   0  0  0  0  0  0  0  0  0  0  0  0
   11.0717    4.0660    4.6371 H   0  0  0  0  0  0  0  0  0  0  0  0
    9.7173    1.8145    6.1418 H   0  0  0  0  0  0  0  0  0  0  0  0
    8.9397    2.9153    4.8827 H   0  0  0  0  0  0  0  0  0  0  0  0
  1  3  2  0
  1  4  1  0
  1  5  1  0
  2  4  1  0
  2  6  1  0
  4  9  1  0
  4 15  1  0
  5  6  1  0
  5  8  1  0
  6  7  2  3
  9 10  2  0
  9 14  1  0
 10 11  1  0
 11 12  2  0
 12 13  1  0
 13 14  2  0
 15 16  2  0
 15 20  1  0
 16 17  1  0
 17 18  2  0
 18 19  1  0
 19 20  2  0
  2 21  1  0
  7 22  1  0
  8 23  1  0
  8 24  1  0
  8 25  1  0
 10 26  1  0
 11 27  1  0
 12 28  1  0
 13 29  1  0
 14 30  1  0
 16 31  1  0
 17 32  1  0
 19 33  1  0
 20 34  1  0
 35 36  2  0
 36 37  1  0
 37 38  2  0
 38 39  1  0
 39 40  2  0
 39 41  1  0
 41 42  1  0
 42 43  1  0
 43 44  1  0
 40 35  1  0
 44 38  1  0
 36 45  1  0
 37 46  1  0
 40 47  1  0
 42 48  1  0
 42 49  1  0
 43 50  1  0
 43 51  1  0
 18 35  1  0
M  END
>  <attachment_point>  (137) 
32

>  <score>  (137) 
<NA>

$$$$
4djw
     RDKit          3D

 46 48  0  0  0  0  0  0  0  0999 V2000
   22.4950   11.8750   22.5810 C   0  0  0  0  0  0  0  0  0  0  0  0
   22.5380    9.4930   22.4640 N   0  0  0  0  0  0  0  0  0  0  0  0
   22.3600   13.0630   22.3480 O   0  0  0  0  0  0  0  0  0  0  0  0
   22.3390   10.6680   21.5610 C   0  0  0  0  0  0  0  0  0  0  0  0
   22.7860   11.3350   23.8120 N   0  0  0  0  0  0  0  0  0  0  0  0
   22.7800    9.9140   23.7010 C   0  0  0  0  0  0  0  0  0  0  0  0
   22.9970    9.1110   24.7490 N   0  0  0  0  0  0  0  0  0  0  0  0
   23.0220   12.1410   25.0180 C   0  0  0  0  0  0  0  0  0  0  0  0
   20.9020   10.6270   21.0050 C   0  0  0  0  0  0  0  0  0  0  0  0
   20.2720    9.4140   20.7470 C   0  0  0  0  0  0  0  0  0  0  0  0
   18.9690    9.3760   20.2600 C   0  0  0  0  0  0  0  0  0  0  0  0
   18.2800   10.5440   20.0210 C   0  0  0  0  0  0  0  0  0  0  0  0
   18.8920   11.7530   20.2590 C   0  0  0  0  0  0  0  0  0  0  0  0
   20.1950   11.7970   20.7440 C   0  0  0  0  0  0  0  0  0  0  0  0
   23.4880   10.6920   20.5300 C   0  0  0  0  0  0  0  0  0  0  0  0
   23.2110   10.7890   19.1730 C   0  0  0  0  0  0  0  0  0  0  0  0
   24.2350   10.8650   18.2430 C   0  0  0  0  0  0  0  0  0  0  0  0
   25.5500   10.8410   18.6560 C   0  0  0  0  0  0  0  0  0  0  0  0
   25.8710   10.7460   20.0070 C   0  0  0  0  0  0  0  0  0  0  0  0
   24.8260   10.6610   20.9430 C   0  0  0  0  0  0  0  0  0  0  0  0
    0.0000    0.0000    0.0000 H   0  0  0  0  0  0  0  0  0  0  0  0
    0.0000    0.0000    0.0000 H   0  0  0  0  0  0  0  0  0  0  0  0
    0.0000    0.0000    0.0000 H   0  0  0  0  0  0  0  0  0  0  0  0
    0.0000    0.0000    0.0000 H   0  0  0  0  0  0  0  0  0  0  0  0
    0.0000    0.0000    0.0000 H   0  0  0  0  0  0  0  0  0  0  0  0
    0.0000    0.0000    0.0000 H   0  0  0  0  0  0  0  0  0  0  0  0
    0.0000    0.0000    0.0000 H   0  0  0  0  0  0  0  0  0  0  0  0
    0.0000    0.0000    0.0000 H   0  0  0  0  0  0  0  0  0  0  0  0
    0.0000    0.0000    0.0000 H   0  0  0  0  0  0  0  0  0  0  0  0
    0.0000    0.0000    0.0000 H   0  0  0  0  0  0  0  0  0  0  0  0
    0.0000    0.0000    0.0000 H   0  0  0  0  0  0  0  0  0  0  0  0
    0.0000    0.0000    0.0000 H   0  0  0  0  0  0  0  0  0  0  0  0
    0.0000    0.0000    0.0000 H   0  0  0  0  0  0  0  0  0  0  0  0
    0.0000    0.0000    0.0000 H   0  0  0  0  0  0  0  0  0  0  0  0
   12.3444    5.2378    9.0136 C   0  0  0  0  0  0  0  0  0  0  0  0
   11.9628    6.1000    8.3453 O   0  0  0  0  0  0  0  0  0  0  0  0
   12.0254    3.9472    9.2202 N   0  0  0  0  0  0  0  0  0  0  0  0
   10.9176    3.2948    8.4809 C   0  0  0  0  0  0  0  0  0  0  0  0
   11.2323    3.3640    6.9899 C   0  0  0  0  0  0  0  0  0  0  0  0
   10.2196    2.7654    6.2794 O   0  0  0  0  0  0  0  0  0  0  0  0
   12.5593    3.3509    9.9234 H   0  0  0  0  0  0  0  0  0  0  0  0
   10.9190    2.2274    8.7443 H   0  0  0  0  0  0  0  0  0  0  0  0
    9.9539    3.7574    8.6993 H   0  0  0  0  0  0  0  0  0  0  0  0
   11.3624    4.4453    6.7438 H   0  0  0  0  0  0  0  0  0  0  0  0
   12.1726    2.8364    6.7502 H   0  0  0  0  0  0  0  0  0  0  0  0
   10.0306    3.2973    5.4654 H   0  0  0  0  0  0  0  0  0  0  0  0
  1  3  2  0
  1  4  1  0
  1  5  1  0
  2  4  1  0
  2  6  1  0
  4  9  1  0
  4 15  1  0
  5  6  1  0
  5  8  1  0
  6  7  2  3
  9 10  2  0
  9 14  1  0
 10 11  1  0
 11 12  2  0
 12 13  1  0
 13 14  2  0
 15 16  2  0
 15 20  1  0
 16 17  1  0
 17 18  2  0
 18 19  1  0
 19 20  2  0
  2 21  1  0
  7 22  1  0
  8 23  1  0
  8 24  1  0
  8 25  1  0
 10 26  1  0
 11 27  1  0
 12 28  1  0
 13 29  1  0
 14 30  1  0
 16 31  1  0
 17 32  1  0
 19 33  1  0
 20 34  1  0
 35 36  2  0
 35 37  1  0
 37 38  1  0
 38 39  1  0
 39 40  1  0
 37 41  1  0
 38 42  1  0
 38 43  1  0
 39 44  1  0
 39 45  1  0
 40 46  1  0
 18 35  1  0
M  END
>  <attachment_point>  (138) 
32

>  <score>  (138) 
<NA>

$$$$
4djw
     RDKit          3D

 48 52  0  0  0  0  0  0  0  0999 V2000
   22.4950   11.8750   22.5810 C   0  0  0  0  0  0  0  0  0  0  0  0
   22.5380    9.4930   22.4640 N   0  0  0  0  0  0  0  0  0  0  0  0
   22.3600   13.0630   22.3480 O   0  0  0  0  0  0  0  0  0  0  0  0
   22.3390   10.6680   21.5610 C   0  0  0  0  0  0  0  0  0  0  0  0
   22.7860   11.3350   23.8120 N   0  0  0  0  0  0  0  0  0  0  0  0
   22.7800    9.9140   23.7010 C   0  0  0  0  0  0  0  0  0  0  0  0
   22.9970    9.1110   24.7490 N   0  0  0  0  0  0  0  0  0  0  0  0
   23.0220   12.1410   25.0180 C   0  0  0  0  0  0  0  0  0  0  0  0
   20.9020   10.6270   21.0050 C   0  0  0  0  0  0  0  0  0  0  0  0
   20.2720    9.4140   20.7470 C   0  0  0  0  0  0  0  0  0  0  0  0
   18.9690    9.3760   20.2600 C   0  0  0  0  0  0  0  0  0  0  0  0
   18.2800   10.5440   20.0210 C   0  0  0  0  0  0  0  0  0  0  0  0
   18.8920   11.7530   20.2590 C   0  0  0  0  0  0  0  0  0  0  0  0
   20.1950   11.7970   20.7440 C   0  0  0  0  0  0  0  0  0  0  0  0
   23.4880   10.6920   20.5300 C   0  0  0  0  0  0  0  0  0  0  0  0
   23.2110   10.7890   19.1730 C   0  0  0  0  0  0  0  0  0  0  0  0
   24.2350   10.8650   18.2430 C   0  0  0  0  0  0  0  0  0  0  0  0
   25.5500   10.8410   18.6560 C   0  0  0  0  0  0  0  0  0  0  0  0
   25.8710   10.7460   20.0070 C   0  0  0  0  0  0  0  0  0  0  0  0
   24.8260   10.6610   20.9430 C   0  0  0  0  0  0  0  0  0  0  0  0
    0.0000    0.0000    0.0000 H   0  0  0  0  0  0  0  0  0  0  0  0
    0.0000    0.0000    0.0000 H   0  0  0  0  0  0  0  0  0  0  0  0
    0.0000    0.0000    0.0000 H   0  0  0  0  0  0  0  0  0  0  0  0
    0.0000    0.0000    0.0000 H   0  0  0  0  0  0  0  0  0  0  0  0
    0.0000    0.0000    0.0000 H   0  0  0  0  0  0  0  0  0  0  0  0
    0.0000    0.0000    0.0000 H   0  0  0  0  0  0  0  0  0  0  0  0
    0.0000    0.0000    0.0000 H   0  0  0  0  0  0  0  0  0  0  0  0
    0.0000    0.0000    0.0000 H   0  0  0  0  0  0  0  0  0  0  0  0
    0.0000    0.0000    0.0000 H   0  0  0  0  0  0  0  0  0  0  0  0
    0.0000    0.0000    0.0000 H   0  0  0  0  0  0  0  0  0  0  0  0
    0.0000    0.0000    0.0000 H   0  0  0  0  0  0  0  0  0  0  0  0
    0.0000    0.0000    0.0000 H   0  0  0  0  0  0  0  0  0  0  0  0
    0.0000    0.0000    0.0000 H   0  0  0  0  0  0  0  0  0  0  0  0
    0.0000    0.0000    0.0000 H   0  0  0  0  0  0  0  0  0  0  0  0
   12.4359    5.2766    9.0804 C   0  0  0  0  0  0  0  0  0  0  0  0
   12.3938    5.2125    7.7123 C   0  0  0  0  0  0  0  0  0  0  0  0
   11.2549    4.7386    7.1550 C   0  0  0  0  0  0  0  0  0  0  0  0
   11.0034    4.5907    5.7783 C   0  0  0  0  0  0  0  0  0  0  0  0
    9.8087    4.0993    5.3550 C   0  0  0  0  0  0  0  0  0  0  0  0
    8.7976    3.7241    6.1771 C   0  0  0  0  0  0  0  0  0  0  0  0
    9.0244    3.8617    7.5362 C   0  0  0  0  0  0  0  0  0  0  0  0
   10.2527    4.3679    8.0001 C   0  0  0  0  0  0  0  0  0  0  0  0
   10.9077    4.6827    9.5421 S   0  0  0  0  0  0  0  0  0  0  0  0
   13.3082    5.5583    7.1621 H   0  0  0  0  0  0  0  0  0  0  0  0
   11.7392    4.8586    5.0331 H   0  0  0  0  0  0  0  0  0  0  0  0
    9.6357    3.9930    4.2777 H   0  0  0  0  0  0  0  0  0  0  0  0
    7.8648    3.3400    5.8345 H   0  0  0  0  0  0  0  0  0  0  0  0
    8.3058    3.6004    8.2723 H   0  0  0  0  0  0  0  0  0  0  0  0
  1  3  2  0
  1  4  1  0
  1  5  1  0
  2  4  1  0
  2  6  1  0
  4  9  1  0
  4 15  1  0
  5  6  1  0
  5  8  1  0
  6  7  2  3
  9 10  2  0
  9 14  1  0
 10 11  1  0
 11 12  2  0
 12 13  1  0
 13 14  2  0
 15 16  2  0
 15 20  1  0
 16 17  1  0
 17 18  2  0
 18 19  1  0
 19 20  2  0
  2 21  1  0
  7 22  1  0
  8 23  1  0
  8 24  1  0
  8 25  1  0
 10 26  1  0
 11 27  1  0
 12 28  1  0
 13 29  1  0
 14 30  1  0
 16 31  1  0
 17 32  1  0
 19 33  1  0
 20 34  1  0
 35 36  2  0
 36 37  1  0
 37 38  2  0
 38 39  1  0
 39 40  2  0
 40 41  1  0
 41 42  2  0
 42 43  1  0
 43 35  1  0
 42 37  1  0
 36 44  1  0
 38 45  1  0
 39 46  1  0
 40 47  1  0
 41 48  1  0
 18 35  1  0
M  END
>  <attachment_point>  (139) 
32

>  <score>  (139) 
<NA>

$$$$
4djw
     RDKit          3D

 54 57  0  0  0  0  0  0  0  0999 V2000
   22.4950   11.8750   22.5810 C   0  0  0  0  0  0  0  0  0  0  0  0
   22.5380    9.4930   22.4640 N   0  0  0  0  0  0  0  0  0  0  0  0
   22.3600   13.0630   22.3480 O   0  0  0  0  0  0  0  0  0  0  0  0
   22.3390   10.6680   21.5610 C   0  0  0  0  0  0  0  0  0  0  0  0
   22.7860   11.3350   23.8120 N   0  0  0  0  0  0  0  0  0  0  0  0
   22.7800    9.9140   23.7010 C   0  0  0  0  0  0  0  0  0  0  0  0
   22.9970    9.1110   24.7490 N   0  0  0  0  0  0  0  0  0  0  0  0
   23.0220   12.1410   25.0180 C   0  0  0  0  0  0  0  0  0  0  0  0
   20.9020   10.6270   21.0050 C   0  0  0  0  0  0  0  0  0  0  0  0
   20.2720    9.4140   20.7470 C   0  0  0  0  0  0  0  0  0  0  0  0
   18.9690    9.3760   20.2600 C   0  0  0  0  0  0  0  0  0  0  0  0
   18.2800   10.5440   20.0210 C   0  0  0  0  0  0  0  0  0  0  0  0
   18.8920   11.7530   20.2590 C   0  0  0  0  0  0  0  0  0  0  0  0
   20.1950   11.7970   20.7440 C   0  0  0  0  0  0  0  0  0  0  0  0
   23.4880   10.6920   20.5300 C   0  0  0  0  0  0  0  0  0  0  0  0
   23.2110   10.7890   19.1730 C   0  0  0  0  0  0  0  0  0  0  0  0
   24.2350   10.8650   18.2430 C   0  0  0  0  0  0  0  0  0  0  0  0
   25.5500   10.8410   18.6560 C   0  0  0  0  0  0  0  0  0  0  0  0
   25.8710   10.7460   20.0070 C   0  0  0  0  0  0  0  0  0  0  0  0
   24.8260   10.6610   20.9430 C   0  0  0  0  0  0  0  0  0  0  0  0
    0.0000    0.0000    0.0000 H   0  0  0  0  0  0  0  0  0  0  0  0
    0.0000    0.0000    0.0000 H   0  0  0  0  0  0  0  0  0  0  0  0
    0.0000    0.0000    0.0000 H   0  0  0  0  0  0  0  0  0  0  0  0
    0.0000    0.0000    0.0000 H   0  0  0  0  0  0  0  0  0  0  0  0
    0.0000    0.0000    0.0000 H   0  0  0  0  0  0  0  0  0  0  0  0
    0.0000    0.0000    0.0000 H   0  0  0  0  0  0  0  0  0  0  0  0
    0.0000    0.0000    0.0000 H   0  0  0  0  0  0  0  0  0  0  0  0
    0.0000    0.0000    0.0000 H   0  0  0  0  0  0  0  0  0  0  0  0
    0.0000    0.0000    0.0000 H   0  0  0  0  0  0  0  0  0  0  0  0
    0.0000    0.0000    0.0000 H   0  0  0  0  0  0  0  0  0  0  0  0
    0.0000    0.0000    0.0000 H   0  0  0  0  0  0  0  0  0  0  0  0
    0.0000    0.0000    0.0000 H   0  0  0  0  0  0  0  0  0  0  0  0
    0.0000    0.0000    0.0000 H   0  0  0  0  0  0  0  0  0  0  0  0
    0.0000    0.0000    0.0000 H   0  0  0  0  0  0  0  0  0  0  0  0
   12.4380    5.2775    9.0819 C   0  0  0  0  0  0  0  0  0  0  0  0
   11.2164    5.9257    9.7017 C   0  0  0  0  0  0  0  0  0  0  0  0
   11.0946    5.4848   11.1386 C   0  0  0  0  0  0  0  0  0  0  0  0
   12.2582    5.8503   11.9600 C   0  0  0  0  0  0  0  0  0  0  0  0
   12.3312    7.0443   12.6364 C   0  0  0  0  0  0  0  0  0  0  0  0
   13.4453    7.3542   13.4018 C   0  0  0  0  0  0  0  0  0  0  0  0
   14.4867    6.4367   13.4729 C   0  0  0  0  0  0  0  0  0  0  0  0
   14.4314    5.2506   12.8103 C   0  0  0  0  0  0  0  0  0  0  0  0
   13.3090    4.9752   12.0589 C   0  0  0  0  0  0  0  0  0  0  0  0
   12.5502    5.6254    8.0275 H   0  0  0  0  0  0  0  0  0  0  0  0
   12.3871    4.1653    9.1318 H   0  0  0  0  0  0  0  0  0  0  0  0
   11.3232    7.0057    9.5750 H   0  0  0  0  0  0  0  0  0  0  0  0
   10.2964    5.5936    9.1798 H   0  0  0  0  0  0  0  0  0  0  0  0
   10.1690    5.8411   11.6170 H   0  0  0  0  0  0  0  0  0  0  0  0
   11.0118    4.3622   11.1113 H   0  0  0  0  0  0  0  0  0  0  0  0
   11.5370    7.7854   12.6044 H   0  0  0  0  0  0  0  0  0  0  0  0
   13.5466    8.2723   13.9463 H   0  0  0  0  0  0  0  0  0  0  0  0
   15.3744    6.6552   14.0676 H   0  0  0  0  0  0  0  0  0  0  0  0
   15.2277    4.5234   12.8510 H   0  0  0  0  0  0  0  0  0  0  0  0
   13.2803    4.0221   11.5349 H   0  0  0  0  0  0  0  0  0  0  0  0
  1  3  2  0
  1  4  1  0
  1  5  1  0
  2  4  1  0
  2  6  1  0
  4  9  1  0
  4 15  1  0
  5  6  1  0
  5  8  1  0
  6  7  2  3
  9 10  2  0
  9 14  1  0
 10 11  1  0
 11 12  2  0
 12 13  1  0
 13 14  2  0
 15 16  2  0
 15 20  1  0
 16 17  1  0
 17 18  2  0
 18 19  1  0
 19 20  2  0
  2 21  1  0
  7 22  1  0
  8 23  1  0
  8 24  1  0
  8 25  1  0
 10 26  1  0
 11 27  1  0
 12 28  1  0
 13 29  1  0
 14 30  1  0
 16 31  1  0
 17 32  1  0
 19 33  1  0
 20 34  1  0
 35 36  1  0
 36 37  1  0
 37 38  1  0
 38 39  2  0
 39 40  1  0
 40 41  2  0
 41 42  1  0
 42 43  2  0
 43 38  1  0
 35 44  1  0
 35 45  1  0
 36 46  1  0
 36 47  1  0
 37 48  1  0
 37 49  1  0
 39 50  1  0
 40 51  1  0
 41 52  1  0
 42 53  1  0
 43 54  1  0
 18 35  1  0
M  END
>  <attachment_point>  (140) 
32

>  <score>  (140) 
<NA>

$$$$
4djw
     RDKit          3D

 49 52  0  0  0  0  0  0  0  0999 V2000
   22.4950   11.8750   22.5810 C   0  0  0  0  0  0  0  0  0  0  0  0
   22.5380    9.4930   22.4640 N   0  0  0  0  0  0  0  0  0  0  0  0
   22.3600   13.0630   22.3480 O   0  0  0  0  0  0  0  0  0  0  0  0
   22.3390   10.6680   21.5610 C   0  0  0  0  0  0  0  0  0  0  0  0
   22.7860   11.3350   23.8120 N   0  0  0  0  0  0  0  0  0  0  0  0
   22.7800    9.9140   23.7010 C   0  0  0  0  0  0  0  0  0  0  0  0
   22.9970    9.1110   24.7490 N   0  0  0  0  0  0  0  0  0  0  0  0
   23.0220   12.1410   25.0180 C   0  0  0  0  0  0  0  0  0  0  0  0
   20.9020   10.6270   21.0050 C   0  0  0  0  0  0  0  0  0  0  0  0
   20.2720    9.4140   20.7470 C   0  0  0  0  0  0  0  0  0  0  0  0
   18.9690    9.3760   20.2600 C   0  0  0  0  0  0  0  0  0  0  0  0
   18.2800   10.5440   20.0210 C   0  0  0  0  0  0  0  0  0  0  0  0
   18.8920   11.7530   20.2590 C   0  0  0  0  0  0  0  0  0  0  0  0
   20.1950   11.7970   20.7440 C   0  0  0  0  0  0  0  0  0  0  0  0
   23.4880   10.6920   20.5300 C   0  0  0  0  0  0  0  0  0  0  0  0
   23.2110   10.7890   19.1730 C   0  0  0  0  0  0  0  0  0  0  0  0
   24.2350   10.8650   18.2430 C   0  0  0  0  0  0  0  0  0  0  0  0
   25.5500   10.8410   18.6560 C   0  0  0  0  0  0  0  0  0  0  0  0
   25.8710   10.7460   20.0070 C   0  0  0  0  0  0  0  0  0  0  0  0
   24.8260   10.6610   20.9430 C   0  0  0  0  0  0  0  0  0  0  0  0
    0.0000    0.0000    0.0000 H   0  0  0  0  0  0  0  0  0  0  0  0
    0.0000    0.0000    0.0000 H   0  0  0  0  0  0  0  0  0  0  0  0
    0.0000    0.0000    0.0000 H   0  0  0  0  0  0  0  0  0  0  0  0
    0.0000    0.0000    0.0000 H   0  0  0  0  0  0  0  0  0  0  0  0
    0.0000    0.0000    0.0000 H   0  0  0  0  0  0  0  0  0  0  0  0
    0.0000    0.0000    0.0000 H   0  0  0  0  0  0  0  0  0  0  0  0
    0.0000    0.0000    0.0000 H   0  0  0  0  0  0  0  0  0  0  0  0
    0.0000    0.0000    0.0000 H   0  0  0  0  0  0  0  0  0  0  0  0
    0.0000    0.0000    0.0000 H   0  0  0  0  0  0  0  0  0  0  0  0
    0.0000    0.0000    0.0000 H   0  0  0  0  0  0  0  0  0  0  0  0
    0.0000    0.0000    0.0000 H   0  0  0  0  0  0  0  0  0  0  0  0
    0.0000    0.0000    0.0000 H   0  0  0  0  0  0  0  0  0  0  0  0
    0.0000    0.0000    0.0000 H   0  0  0  0  0  0  0  0  0  0  0  0
    0.0000    0.0000    0.0000 H   0  0  0  0  0  0  0  0  0  0  0  0
   12.4366    5.2769    9.0809 C   0  0  0  0  0  0  0  0  0  0  0  0
   11.4635    4.7785    9.6555 O   0  0  0  0  0  0  0  0  0  0  0  0
   12.5009    5.3990    7.7040 N   0  0  0  0  0  0  0  0  0  0  0  0
   11.4725    4.9762    6.7503 C   0  0  0  0  0  0  0  0  0  0  0  0
   12.3010    4.3085    5.6909 C   0  0  0  0  0  0  0  0  0  0  0  0
   13.7315    4.7645    5.8905 C   0  0  0  0  0  0  0  0  0  0  0  0
   13.5396    5.9479    6.8384 C   0  0  0  0  0  0  0  0  0  0  0  0
   10.7183    4.3338    7.2003 H   0  0  0  0  0  0  0  0  0  0  0  0
   11.0699    5.9097    6.3134 H   0  0  0  0  0  0  0  0  0  0  0  0
   11.9784    4.5622    4.6557 H   0  0  0  0  0  0  0  0  0  0  0  0
   12.2291    3.2039    5.8312 H   0  0  0  0  0  0  0  0  0  0  0  0
   14.2531    3.9693    6.4675 H   0  0  0  0  0  0  0  0  0  0  0  0
   14.2358    5.0469    4.9680 H   0  0  0  0  0  0  0  0  0  0  0  0
   13.0686    6.7673    6.2658 H   0  0  0  0  0  0  0  0  0  0  0  0
   14.4484    6.2163    7.3713 H   0  0  0  0  0  0  0  0  0  0  0  0
  1  3  2  0
  1  4  1  0
  1  5  1  0
  2  4  1  0
  2  6  1  0
  4  9  1  0
  4 15  1  0
  5  6  1  0
  5  8  1  0
  6  7  2  3
  9 10  2  0
  9 14  1  0
 10 11  1  0
 11 12  2  0
 12 13  1  0
 13 14  2  0
 15 16  2  0
 15 20  1  0
 16 17  1  0
 17 18  2  0
 18 19  1  0
 19 20  2  0
  2 21  1  0
  7 22  1  0
  8 23  1  0
  8 24  1  0
  8 25  1  0
 10 26  1  0
 11 27  1  0
 12 28  1  0
 13 29  1  0
 14 30  1  0
 16 31  1  0
 17 32  1  0
 19 33  1  0
 20 34  1  0
 35 36  2  0
 35 37  1  0
 37 38  1  0
 38 39  1  0
 39 40  1  0
 40 41  1  0
 41 37  1  0
 38 42  1  0
 38 43  1  0
 39 44  1  0
 39 45  1  0
 40 46  1  0
 40 47  1  0
 41 48  1  0
 41 49  1  0
 18 35  1  0
M  END
>  <attachment_point>  (141) 
32

>  <score>  (141) 
<NA>

$$$$
4djw
     RDKit          3D

 55 58  0  0  0  0  0  0  0  0999 V2000
   22.4950   11.8750   22.5810 C   0  0  0  0  0  0  0  0  0  0  0  0
   22.5380    9.4930   22.4640 N   0  0  0  0  0  0  0  0  0  0  0  0
   22.3600   13.0630   22.3480 O   0  0  0  0  0  0  0  0  0  0  0  0
   22.3390   10.6680   21.5610 C   0  0  0  0  0  0  0  0  0  0  0  0
   22.7860   11.3350   23.8120 N   0  0  0  0  0  0  0  0  0  0  0  0
   22.7800    9.9140   23.7010 C   0  0  0  0  0  0  0  0  0  0  0  0
   22.9970    9.1110   24.7490 N   0  0  0  0  0  0  0  0  0  0  0  0
   23.0220   12.1410   25.0180 C   0  0  0  0  0  0  0  0  0  0  0  0
   20.9020   10.6270   21.0050 C   0  0  0  0  0  0  0  0  0  0  0  0
   20.2720    9.4140   20.7470 C   0  0  0  0  0  0  0  0  0  0  0  0
   18.9690    9.3760   20.2600 C   0  0  0  0  0  0  0  0  0  0  0  0
   18.2800   10.5440   20.0210 C   0  0  0  0  0  0  0  0  0  0  0  0
   18.8920   11.7530   20.2590 C   0  0  0  0  0  0  0  0  0  0  0  0
   20.1950   11.7970   20.7440 C   0  0  0  0  0  0  0  0  0  0  0  0
   23.4880   10.6920   20.5300 C   0  0  0  0  0  0  0  0  0  0  0  0
   23.2110   10.7890   19.1730 C   0  0  0  0  0  0  0  0  0  0  0  0
   24.2350   10.8650   18.2430 C   0  0  0  0  0  0  0  0  0  0  0  0
   25.5500   10.8410   18.6560 C   0  0  0  0  0  0  0  0  0  0  0  0
   25.8710   10.7460   20.0070 C   0  0  0  0  0  0  0  0  0  0  0  0
   24.8260   10.6610   20.9430 C   0  0  0  0  0  0  0  0  0  0  0  0
    0.0000    0.0000    0.0000 H   0  0  0  0  0  0  0  0  0  0  0  0
    0.0000    0.0000    0.0000 H   0  0  0  0  0  0  0  0  0  0  0  0
    0.0000    0.0000    0.0000 H   0  0  0  0  0  0  0  0  0  0  0  0
    0.0000    0.0000    0.0000 H   0  0  0  0  0  0  0  0  0  0  0  0
    0.0000    0.0000    0.0000 H   0  0  0  0  0  0  0  0  0  0  0  0
    0.0000    0.0000    0.0000 H   0  0  0  0  0  0  0  0  0  0  0  0
    0.0000    0.0000    0.0000 H   0  0  0  0  0  0  0  0  0  0  0  0
    0.0000    0.0000    0.0000 H   0  0  0  0  0  0  0  0  0  0  0  0
    0.0000    0.0000    0.0000 H   0  0  0  0  0  0  0  0  0  0  0  0
    0.0000    0.0000    0.0000 H   0  0  0  0  0  0  0  0  0  0  0  0
    0.0000    0.0000    0.0000 H   0  0  0  0  0  0  0  0  0  0  0  0
    0.0000    0.0000    0.0000 H   0  0  0  0  0  0  0  0  0  0  0  0
    0.0000    0.0000    0.0000 H   0  0  0  0  0  0  0  0  0  0  0  0
    0.0000    0.0000    0.0000 H   0  0  0  0  0  0  0  0  0  0  0  0
   12.4114    5.2662    9.0625 C   0  0  0  0  0  0  0  0  0  0  0  0
   11.3111    5.2203    9.9798 N   0  0  0  0  0  0  0  0  0  0  0  0
   10.0869    4.7831    9.4232 C   0  0  0  0  0  0  0  0  0  0  0  0
    8.8502    5.3010   10.0259 C   0  0  0  0  0  0  0  0  0  0  0  0
    8.9596    5.8749   11.3104 N   0  0  0  0  0  0  0  0  0  0  0  0
    7.8000    6.0807   12.0427 C   0  0  0  0  0  0  0  0  0  0  0  0
   10.2053    5.9182   11.9361 C   0  0  0  0  0  0  0  0  0  0  0  0
   11.2333    6.3312   10.8725 C   0  0  0  0  0  0  0  0  0  0  0  0
   12.3228    6.0275    8.2836 H   0  0  0  0  0  0  0  0  0  0  0  0
   12.7867    4.3009    8.7315 H   0  0  0  0  0  0  0  0  0  0  0  0
   10.0742    4.9885    8.3119 H   0  0  0  0  0  0  0  0  0  0  0  0
   10.0789    3.6530    9.4726 H   0  0  0  0  0  0  0  0  0  0  0  0
    8.3742    6.0650    9.3445 H   0  0  0  0  0  0  0  0  0  0  0  0
    8.0688    4.4850   10.0815 H   0  0  0  0  0  0  0  0  0  0  0  0
    7.6110    7.1863   12.1533 H   0  0  0  0  0  0  0  0  0  0  0  0
    7.9353    5.7207   13.0978 H   0  0  0  0  0  0  0  0  0  0  0  0
    6.9016    5.5955   11.6447 H   0  0  0  0  0  0  0  0  0  0  0  0
   10.5056    4.9181   12.3446 H   0  0  0  0  0  0  0  0  0  0  0  0
   10.2495    6.6969   12.7153 H   0  0  0  0  0  0  0  0  0  0  0  0
   10.8068    7.1963   10.3039 H   0  0  0  0  0  0  0  0  0  0  0  0
   12.2140    6.5245   11.3002 H   0  0  0  0  0  0  0  0  0  0  0  0
  1  3  2  0
  1  4  1  0
  1  5  1  0
  2  4  1  0
  2  6  1  0
  4  9  1  0
  4 15  1  0
  5  6  1  0
  5  8  1  0
  6  7  2  3
  9 10  2  0
  9 14  1  0
 10 11  1  0
 11 12  2  0
 12 13  1  0
 13 14  2  0
 15 16  2  0
 15 20  1  0
 16 17  1  0
 17 18  2  0
 18 19  1  0
 19 20  2  0
  2 21  1  0
  7 22  1  0
  8 23  1  0
  8 24  1  0
  8 25  1  0
 10 26  1  0
 11 27  1  0
 12 28  1  0
 13 29  1  0
 14 30  1  0
 16 31  1  0
 17 32  1  0
 19 33  1  0
 20 34  1  0
 35 36  1  0
 36 37  1  0
 37 38  1  0
 38 39  1  0
 39 40  1  0
 39 41  1  0
 41 42  1  0
 42 36  1  0
 35 43  1  0
 35 44  1  0
 37 45  1  0
 37 46  1  0
 38 47  1  0
 38 48  1  0
 40 49  1  0
 40 50  1  0
 40 51  1  0
 41 52  1  0
 41 53  1  0
 42 54  1  0
 42 55  1  0
 18 35  1  0
M  END
>  <attachment_point>  (142) 
32

>  <score>  (142) 
<NA>

$$$$
4djw
     RDKit          3D

 48 51  0  0  0  0  0  0  0  0999 V2000
   22.4950   11.8750   22.5810 C   0  0  0  0  0  0  0  0  0  0  0  0
   22.5380    9.4930   22.4640 N   0  0  0  0  0  0  0  0  0  0  0  0
   22.3600   13.0630   22.3480 O   0  0  0  0  0  0  0  0  0  0  0  0
   22.3390   10.6680   21.5610 C   0  0  0  0  0  0  0  0  0  0  0  0
   22.7860   11.3350   23.8120 N   0  0  0  0  0  0  0  0  0  0  0  0
   22.7800    9.9140   23.7010 C   0  0  0  0  0  0  0  0  0  0  0  0
   22.9970    9.1110   24.7490 N   0  0  0  0  0  0  0  0  0  0  0  0
   23.0220   12.1410   25.0180 C   0  0  0  0  0  0  0  0  0  0  0  0
   20.9020   10.6270   21.0050 C   0  0  0  0  0  0  0  0  0  0  0  0
   20.2720    9.4140   20.7470 C   0  0  0  0  0  0  0  0  0  0  0  0
   18.9690    9.3760   20.2600 C   0  0  0  0  0  0  0  0  0  0  0  0
   18.2800   10.5440   20.0210 C   0  0  0  0  0  0  0  0  0  0  0  0
   18.8920   11.7530   20.2590 C   0  0  0  0  0  0  0  0  0  0  0  0
   20.1950   11.7970   20.7440 C   0  0  0  0  0  0  0  0  0  0  0  0
   23.4880   10.6920   20.5300 C   0  0  0  0  0  0  0  0  0  0  0  0
   23.2110   10.7890   19.1730 C   0  0  0  0  0  0  0  0  0  0  0  0
   24.2350   10.8650   18.2430 C   0  0  0  0  0  0  0  0  0  0  0  0
   25.5500   10.8410   18.6560 C   0  0  0  0  0  0  0  0  0  0  0  0
   25.8710   10.7460   20.0070 C   0  0  0  0  0  0  0  0  0  0  0  0
   24.8260   10.6610   20.9430 C   0  0  0  0  0  0  0  0  0  0  0  0
    0.0000    0.0000    0.0000 H   0  0  0  0  0  0  0  0  0  0  0  0
    0.0000    0.0000    0.0000 H   0  0  0  0  0  0  0  0  0  0  0  0
    0.0000    0.0000    0.0000 H   0  0  0  0  0  0  0  0  0  0  0  0
    0.0000    0.0000    0.0000 H   0  0  0  0  0  0  0  0  0  0  0  0
    0.0000    0.0000    0.0000 H   0  0  0  0  0  0  0  0  0  0  0  0
    0.0000    0.0000    0.0000 H   0  0  0  0  0  0  0  0  0  0  0  0
    0.0000    0.0000    0.0000 H   0  0  0  0  0  0  0  0  0  0  0  0
    0.0000    0.0000    0.0000 H   0  0  0  0  0  0  0  0  0  0  0  0
    0.0000    0.0000    0.0000 H   0  0  0  0  0  0  0  0  0  0  0  0
    0.0000    0.0000    0.0000 H   0  0  0  0  0  0  0  0  0  0  0  0
    0.0000    0.0000    0.0000 H   0  0  0  0  0  0  0  0  0  0  0  0
    0.0000    0.0000    0.0000 H   0  0  0  0  0  0  0  0  0  0  0  0
    0.0000    0.0000    0.0000 H   0  0  0  0  0  0  0  0  0  0  0  0
    0.0000    0.0000    0.0000 H   0  0  0  0  0  0  0  0  0  0  0  0
   12.4131    5.2670    9.0638 C   0  0  0  0  0  0  0  0  0  0  0  0
   12.6414    4.4210    8.0307 C   0  0  0  0  0  0  0  0  0  0  0  0
   11.5208    4.0161    7.3023 C   0  0  0  0  0  0  0  0  0  0  0  0
   10.2477    4.4491    7.6109 C   0  0  0  0  0  0  0  0  0  0  0  0
   10.0391    5.3107    8.6674 C   0  0  0  0  0  0  0  0  0  0  0  0
    8.6979    5.7870    9.0182 C   0  0  0  0  0  0  0  0  0  0  0  0
    8.5780    6.5650    9.9853 O   0  0  0  0  0  0  0  0  0  0  0  0
    7.5669    5.4101    8.3236 O   0  0  0  0  0  0  0  0  0  0  0  0
   11.1520    5.7113    9.3891 C   0  0  0  0  0  0  0  0  0  0  0  0
   13.6160    4.0613    7.7586 H   0  0  0  0  0  0  0  0  0  0  0  0
   11.6203    3.3368    6.4570 H   0  0  0  0  0  0  0  0  0  0  0  0
    9.3690    4.1452    7.0570 H   0  0  0  0  0  0  0  0  0  0  0  0
    6.7575    6.0436    8.2173 H   0  0  0  0  0  0  0  0  0  0  0  0
   10.9855    6.3845   10.2140 H   0  0  0  0  0  0  0  0  0  0  0  0
  1  3  2  0
  1  4  1  0
  1  5  1  0
  2  4  1  0
  2  6  1  0
  4  9  1  0
  4 15  1  0
  5  6  1  0
  5  8  1  0
  6  7  2  3
  9 10  2  0
  9 14  1  0
 10 11  1  0
 11 12  2  0
 12 13  1  0
 13 14  2  0
 15 16  2  0
 15 20  1  0
 16 17  1  0
 17 18  2  0
 18 19  1  0
 19 20  2  0
  2 21  1  0
  7 22  1  0
  8 23  1  0
  8 24  1  0
  8 25  1  0
 10 26  1  0
 11 27  1  0
 12 28  1  0
 13 29  1  0
 14 30  1  0
 16 31  1  0
 17 32  1  0
 19 33  1  0
 20 34  1  0
 35 36  2  0
 36 37  1  0
 37 38  2  0
 38 39  1  0
 39 40  1  0
 40 41  2  0
 40 42  1  0
 39 43  2  0
 43 35  1  0
 36 44  1  0
 37 45  1  0
 38 46  1  0
 42 47  1  0
 43 48  1  0
 18 35  1  0
M  END
>  <attachment_point>  (143) 
32

>  <score>  (143) 
<NA>

$$$$
4djw
     RDKit          3D

 45 47  0  0  0  0  0  0  0  0999 V2000
   22.4950   11.8750   22.5810 C   0  0  0  0  0  0  0  0  0  0  0  0
   22.5380    9.4930   22.4640 N   0  0  0  0  0  0  0  0  0  0  0  0
   22.3600   13.0630   22.3480 O   0  0  0  0  0  0  0  0  0  0  0  0
   22.3390   10.6680   21.5610 C   0  0  0  0  0  0  0  0  0  0  0  0
   22.7860   11.3350   23.8120 N   0  0  0  0  0  0  0  0  0  0  0  0
   22.7800    9.9140   23.7010 C   0  0  0  0  0  0  0  0  0  0  0  0
   22.9970    9.1110   24.7490 N   0  0  0  0  0  0  0  0  0  0  0  0
   23.0220   12.1410   25.0180 C   0  0  0  0  0  0  0  0  0  0  0  0
   20.9020   10.6270   21.0050 C   0  0  0  0  0  0  0  0  0  0  0  0
   20.2720    9.4140   20.7470 C   0  0  0  0  0  0  0  0  0  0  0  0
   18.9690    9.3760   20.2600 C   0  0  0  0  0  0  0  0  0  0  0  0
   18.2800   10.5440   20.0210 C   0  0  0  0  0  0  0  0  0  0  0  0
   18.8920   11.7530   20.2590 C   0  0  0  0  0  0  0  0  0  0  0  0
   20.1950   11.7970   20.7440 C   0  0  0  0  0  0  0  0  0  0  0  0
   23.4880   10.6920   20.5300 C   0  0  0  0  0  0  0  0  0  0  0  0
   23.2110   10.7890   19.1730 C   0  0  0  0  0  0  0  0  0  0  0  0
   24.2350   10.8650   18.2430 C   0  0  0  0  0  0  0  0  0  0  0  0
   25.5500   10.8410   18.6560 C   0  0  0  0  0  0  0  0  0  0  0  0
   25.8710   10.7460   20.0070 C   0  0  0  0  0  0  0  0  0  0  0  0
   24.8260   10.6610   20.9430 C   0  0  0  0  0  0  0  0  0  0  0  0
    0.0000    0.0000    0.0000 H   0  0  0  0  0  0  0  0  0  0  0  0
    0.0000    0.0000    0.0000 H   0  0  0  0  0  0  0  0  0  0  0  0
    0.0000    0.0000    0.0000 H   0  0  0  0  0  0  0  0  0  0  0  0
    0.0000    0.0000    0.0000 H   0  0  0  0  0  0  0  0  0  0  0  0
    0.0000    0.0000    0.0000 H   0  0  0  0  0  0  0  0  0  0  0  0
    0.0000    0.0000    0.0000 H   0  0  0  0  0  0  0  0  0  0  0  0
    0.0000    0.0000    0.0000 H   0  0  0  0  0  0  0  0  0  0  0  0
    0.0000    0.0000    0.0000 H   0  0  0  0  0  0  0  0  0  0  0  0
    0.0000    0.0000    0.0000 H   0  0  0  0  0  0  0  0  0  0  0  0
    0.0000    0.0000    0.0000 H   0  0  0  0  0  0  0  0  0  0  0  0
    0.0000    0.0000    0.0000 H   0  0  0  0  0  0  0  0  0  0  0  0
    0.0000    0.0000    0.0000 H   0  0  0  0  0  0  0  0  0  0  0  0
    0.0000    0.0000    0.0000 H   0  0  0  0  0  0  0  0  0  0  0  0
    0.0000    0.0000    0.0000 H   0  0  0  0  0  0  0  0  0  0  0  0
   12.4424    5.2794    9.0851 C   0  0  0  0  0  0  0  0  0  0  0  0
   12.2437    5.7576    7.9393 O   0  0  0  0  0  0  0  0  0  0  0  0
   11.5620    4.2720    9.5695 N   0  0  0  0  0  0  0  0  0  0  0  0
   10.4724    3.8435    8.7136 C   0  0  0  0  0  0  0  0  0  0  0  0
    9.5545    4.9910    8.3776 C   0  0  0  0  0  0  0  0  0  0  0  0
   11.7252    3.8713   10.5244 H   0  0  0  0  0  0  0  0  0  0  0  0
   10.9405    3.3922    7.7981 H   0  0  0  0  0  0  0  0  0  0  0  0
    9.9473    3.0102    9.2368 H   0  0  0  0  0  0  0  0  0  0  0  0
    9.9377    5.9261    8.8397 H   0  0  0  0  0  0  0  0  0  0  0  0
    8.5743    4.7734    8.8398 H   0  0  0  0  0  0  0  0  0  0  0  0
    9.4739    5.0545    7.2738 H   0  0  0  0  0  0  0  0  0  0  0  0
  1  3  2  0
  1  4  1  0
  1  5  1  0
  2  4  1  0
  2  6  1  0
  4  9  1  0
  4 15  1  0
  5  6  1  0
  5  8  1  0
  6  7  2  3
  9 10  2  0
  9 14  1  0
 10 11  1  0
 11 12  2  0
 12 13  1  0
 13 14  2  0
 15 16  2  0
 15 20  1  0
 16 17  1  0
 17 18  2  0
 18 19  1  0
 19 20  2  0
  2 21  1  0
  7 22  1  0
  8 23  1  0
  8 24  1  0
  8 25  1  0
 10 26  1  0
 11 27  1  0
 12 28  1  0
 13 29  1  0
 14 30  1  0
 16 31  1  0
 17 32  1  0
 19 33  1  0
 20 34  1  0
 35 36  2  0
 35 37  1  0
 37 38  1  0
 38 39  1  0
 37 40  1  0
 38 41  1  0
 38 42  1  0
 39 43  1  0
 39 44  1  0
 39 45  1  0
 18 35  1  0
M  END
>  <attachment_point>  (144) 
32

>  <score>  (144) 
<NA>

$$$$
4djw
     RDKit          3D

 55 58  0  0  0  0  0  0  0  0999 V2000
   22.4950   11.8750   22.5810 C   0  0  0  0  0  0  0  0  0  0  0  0
   22.5380    9.4930   22.4640 N   0  0  0  0  0  0  0  0  0  0  0  0
   22.3600   13.0630   22.3480 O   0  0  0  0  0  0  0  0  0  0  0  0
   22.3390   10.6680   21.5610 C   0  0  0  0  0  0  0  0  0  0  0  0
   22.7860   11.3350   23.8120 N   0  0  0  0  0  0  0  0  0  0  0  0
   22.7800    9.9140   23.7010 C   0  0  0  0  0  0  0  0  0  0  0  0
   22.9970    9.1110   24.7490 N   0  0  0  0  0  0  0  0  0  0  0  0
   23.0220   12.1410   25.0180 C   0  0  0  0  0  0  0  0  0  0  0  0
   20.9020   10.6270   21.0050 C   0  0  0  0  0  0  0  0  0  0  0  0
   20.2720    9.4140   20.7470 C   0  0  0  0  0  0  0  0  0  0  0  0
   18.9690    9.3760   20.2600 C   0  0  0  0  0  0  0  0  0  0  0  0
   18.2800   10.5440   20.0210 C   0  0  0  0  0  0  0  0  0  0  0  0
   18.8920   11.7530   20.2590 C   0  0  0  0  0  0  0  0  0  0  0  0
   20.1950   11.7970   20.7440 C   0  0  0  0  0  0  0  0  0  0  0  0
   23.4880   10.6920   20.5300 C   0  0  0  0  0  0  0  0  0  0  0  0
   23.2110   10.7890   19.1730 C   0  0  0  0  0  0  0  0  0  0  0  0
   24.2350   10.8650   18.2430 C   0  0  0  0  0  0  0  0  0  0  0  0
   25.5500   10.8410   18.6560 C   0  0  0  0  0  0  0  0  0  0  0  0
   25.8710   10.7460   20.0070 C   0  0  0  0  0  0  0  0  0  0  0  0
   24.8260   10.6610   20.9430 C   0  0  0  0  0  0  0  0  0  0  0  0
    0.0000    0.0000    0.0000 H   0  0  0  0  0  0  0  0  0  0  0  0
    0.0000    0.0000    0.0000 H   0  0  0  0  0  0  0  0  0  0  0  0
    0.0000    0.0000    0.0000 H   0  0  0  0  0  0  0  0  0  0  0  0
    0.0000    0.0000    0.0000 H   0  0  0  0  0  0  0  0  0  0  0  0
    0.0000    0.0000    0.0000 H   0  0  0  0  0  0  0  0  0  0  0  0
    0.0000    0.0000    0.0000 H   0  0  0  0  0  0  0  0  0  0  0  0
    0.0000    0.0000    0.0000 H   0  0  0  0  0  0  0  0  0  0  0  0
    0.0000    0.0000    0.0000 H   0  0  0  0  0  0  0  0  0  0  0  0
    0.0000    0.0000    0.0000 H   0  0  0  0  0  0  0  0  0  0  0  0
    0.0000    0.0000    0.0000 H   0  0  0  0  0  0  0  0  0  0  0  0
    0.0000    0.0000    0.0000 H   0  0  0  0  0  0  0  0  0  0  0  0
    0.0000    0.0000    0.0000 H   0  0  0  0  0  0  0  0  0  0  0  0
    0.0000    0.0000    0.0000 H   0  0  0  0  0  0  0  0  0  0  0  0
    0.0000    0.0000    0.0000 H   0  0  0  0  0  0  0  0  0  0  0  0
   12.6047    5.3482    9.2037 O   0  0  0  0  0  0  0  0  0  0  0  0
   11.4338    4.5860    9.2684 C   0  0  0  0  0  0  0  0  0  0  0  0
   10.7953    4.5862    7.9005 C   0  0  0  0  0  0  0  0  0  0  0  0
   11.6609    4.0418    6.9610 N   0  0  0  0  0  0  0  0  0  0  0  0
   11.9972    2.6933    6.9815 C   0  0  0  0  0  0  0  0  0  0  0  0
   13.2011    2.3221    6.1611 C   0  0  0  0  0  0  0  0  0  0  0  0
   13.3193    3.0832    4.9985 O   0  0  0  0  0  0  0  0  0  0  0  0
   13.4965    4.4112    5.4424 C   0  0  0  0  0  0  0  0  0  0  0  0
   12.0969    4.8501    5.8875 C   0  0  0  0  0  0  0  0  0  0  0  0
   11.6820    3.5487    9.5585 H   0  0  0  0  0  0  0  0  0  0  0  0
   10.7299    4.9685   10.0378 H   0  0  0  0  0  0  0  0  0  0  0  0
    9.8168    4.0822    7.8921 H   0  0  0  0  0  0  0  0  0  0  0  0
   10.6179    5.6651    7.6465 H   0  0  0  0  0  0  0  0  0  0  0  0
   11.1487    2.0698    6.6299 H   0  0  0  0  0  0  0  0  0  0  0  0
   12.2271    2.3331    8.0268 H   0  0  0  0  0  0  0  0  0  0  0  0
   13.2201    1.2364    5.9264 H   0  0  0  0  0  0  0  0  0  0  0  0
   14.1314    2.5182    6.7457 H   0  0  0  0  0  0  0  0  0  0  0  0
   14.1016    4.3847    6.3833 H   0  0  0  0  0  0  0  0  0  0  0  0
   13.8906    5.0734    4.6739 H   0  0  0  0  0  0  0  0  0  0  0  0
   12.1105    5.9186    6.1669 H   0  0  0  0  0  0  0  0  0  0  0  0
   11.4251    4.6985    5.0131 H   0  0  0  0  0  0  0  0  0  0  0  0
  1  3  2  0
  1  4  1  0
  1  5  1  0
  2  4  1  0
  2  6  1  0
  4  9  1  0
  4 15  1  0
  5  6  1  0
  5  8  1  0
  6  7  2  3
  9 10  2  0
  9 14  1  0
 10 11  1  0
 11 12  2  0
 12 13  1  0
 13 14  2  0
 15 16  2  0
 15 20  1  0
 16 17  1  0
 17 18  2  0
 18 19  1  0
 19 20  2  0
  2 21  1  0
  7 22  1  0
  8 23  1  0
  8 24  1  0
  8 25  1  0
 10 26  1  0
 11 27  1  0
 12 28  1  0
 13 29  1  0
 14 30  1  0
 16 31  1  0
 17 32  1  0
 19 33  1  0
 20 34  1  0
 35 36  1  0
 36 37  1  0
 37 38  1  0
 38 39  1  0
 39 40  1  0
 40 41  1  0
 41 42  1  0
 42 43  1  0
 43 38  1  0
 36 44  1  0
 36 45  1  0
 37 46  1  0
 37 47  1  0
 39 48  1  0
 39 49  1  0
 40 50  1  0
 40 51  1  0
 42 52  1  0
 42 53  1  0
 43 54  1  0
 43 55  1  0
 18 35  1  0
M  END
>  <attachment_point>  (145) 
32

>  <score>  (145) 
<NA>

$$$$
4djw
     RDKit          3D

 54 57  0  0  0  0  0  0  0  0999 V2000
   22.4950   11.8750   22.5810 C   0  0  0  0  0  0  0  0  0  0  0  0
   22.5380    9.4930   22.4640 N   0  0  0  0  0  0  0  0  0  0  0  0
   22.3600   13.0630   22.3480 O   0  0  0  0  0  0  0  0  0  0  0  0
   22.3390   10.6680   21.5610 C   0  0  0  0  0  0  0  0  0  0  0  0
   22.7860   11.3350   23.8120 N   0  0  0  0  0  0  0  0  0  0  0  0
   22.7800    9.9140   23.7010 C   0  0  0  0  0  0  0  0  0  0  0  0
   22.9970    9.1110   24.7490 N   0  0  0  0  0  0  0  0  0  0  0  0
   23.0220   12.1410   25.0180 C   0  0  0  0  0  0  0  0  0  0  0  0
   20.9020   10.6270   21.0050 C   0  0  0  0  0  0  0  0  0  0  0  0
   20.2720    9.4140   20.7470 C   0  0  0  0  0  0  0  0  0  0  0  0
   18.9690    9.3760   20.2600 C   0  0  0  0  0  0  0  0  0  0  0  0
   18.2800   10.5440   20.0210 C   0  0  0  0  0  0  0  0  0  0  0  0
   18.8920   11.7530   20.2590 C   0  0  0  0  0  0  0  0  0  0  0  0
   20.1950   11.7970   20.7440 C   0  0  0  0  0  0  0  0  0  0  0  0
   23.4880   10.6920   20.5300 C   0  0  0  0  0  0  0  0  0  0  0  0
   23.2110   10.7890   19.1730 C   0  0  0  0  0  0  0  0  0  0  0  0
   24.2350   10.8650   18.2430 C   0  0  0  0  0  0  0  0  0  0  0  0
   25.5500   10.8410   18.6560 C   0  0  0  0  0  0  0  0  0  0  0  0
   25.8710   10.7460   20.0070 C   0  0  0  0  0  0  0  0  0  0  0  0
   24.8260   10.6610   20.9430 C   0  0  0  0  0  0  0  0  0  0  0  0
    0.0000    0.0000    0.0000 H   0  0  0  0  0  0  0  0  0  0  0  0
    0.0000    0.0000    0.0000 H   0  0  0  0  0  0  0  0  0  0  0  0
    0.0000    0.0000    0.0000 H   0  0  0  0  0  0  0  0  0  0  0  0
    0.0000    0.0000    0.0000 H   0  0  0  0  0  0  0  0  0  0  0  0
    0.0000    0.0000    0.0000 H   0  0  0  0  0  0  0  0  0  0  0  0
    0.0000    0.0000    0.0000 H   0  0  0  0  0  0  0  0  0  0  0  0
    0.0000    0.0000    0.0000 H   0  0  0  0  0  0  0  0  0  0  0  0
    0.0000    0.0000    0.0000 H   0  0  0  0  0  0  0  0  0  0  0  0
    0.0000    0.0000    0.0000 H   0  0  0  0  0  0  0  0  0  0  0  0
    0.0000    0.0000    0.0000 H   0  0  0  0  0  0  0  0  0  0  0  0
    0.0000    0.0000    0.0000 H   0  0  0  0  0  0  0  0  0  0  0  0
    0.0000    0.0000    0.0000 H   0  0  0  0  0  0  0  0  0  0  0  0
    0.0000    0.0000    0.0000 H   0  0  0  0  0  0  0  0  0  0  0  0
    0.0000    0.0000    0.0000 H   0  0  0  0  0  0  0  0  0  0  0  0
   12.4706    5.2913    9.1057 C   0  0  0  0  0  0  0  0  0  0  0  0
   11.6444    4.1702    9.6053 C   0  0  0  0  0  0  0  0  0  0  0  0
   11.0183    4.3833   10.8576 N   0  0  0  0  0  0  0  0  0  0  0  0
   10.4362    3.1542   11.2888 C   0  0  0  0  0  0  0  0  0  0  0  0
    9.8731    3.1659   12.6765 C   0  0  0  0  0  0  0  0  0  0  0  0
   10.3547    4.2106   13.4657 O   0  0  0  0  0  0  0  0  0  0  0  0
   11.6711    4.4443   13.1330 C   0  0  0  0  0  0  0  0  0  0  0  0
   11.6570    5.1956   11.7999 C   0  0  0  0  0  0  0  0  0  0  0  0
   11.8139    6.1636    8.8333 H   0  0  0  0  0  0  0  0  0  0  0  0
   12.9306    4.9842    8.1094 H   0  0  0  0  0  0  0  0  0  0  0  0
   10.8057    3.9664    8.8588 H   0  0  0  0  0  0  0  0  0  0  0  0
   12.2289    3.2228    9.5873 H   0  0  0  0  0  0  0  0  0  0  0  0
   11.1702    2.3163   11.1637 H   0  0  0  0  0  0  0  0  0  0  0  0
    9.5878    2.9518   10.5626 H   0  0  0  0  0  0  0  0  0  0  0  0
   10.1197    2.2204   13.1987 H   0  0  0  0  0  0  0  0  0  0  0  0
    8.7633    3.3095   12.5791 H   0  0  0  0  0  0  0  0  0  0  0  0
   12.2082    3.4913   12.9354 H   0  0  0  0  0  0  0  0  0  0  0  0
   12.1689    5.0291   13.9174 H   0  0  0  0  0  0  0  0  0  0  0  0
   10.9962    6.0904   12.0014 H   0  0  0  0  0  0  0  0  0  0  0  0
   12.6544    5.5892   11.5525 H   0  0  0  0  0  0  0  0  0  0  0  0
  1  3  2  0
  1  4  1  0
  1  5  1  0
  2  4  1  0
  2  6  1  0
  4  9  1  0
  4 15  1  0
  5  6  1  0
  5  8  1  0
  6  7  2  3
  9 10  2  0
  9 14  1  0
 10 11  1  0
 11 12  2  0
 12 13  1  0
 13 14  2  0
 15 16  2  0
 15 20  1  0
 16 17  1  0
 17 18  2  0
 18 19  1  0
 19 20  2  0
  2 21  1  0
  7 22  1  0
  8 23  1  0
  8 24  1  0
  8 25  1  0
 10 26  1  0
 11 27  1  0
 12 28  1  0
 13 29  1  0
 14 30  1  0
 16 31  1  0
 17 32  1  0
 19 33  1  0
 20 34  1  0
 35 36  1  0
 36 37  1  0
 37 38  1  0
 38 39  1  0
 39 40  1  0
 40 41  1  0
 41 42  1  0
 42 37  1  0
 35 43  1  0
 35 44  1  0
 36 45  1  0
 36 46  1  0
 38 47  1  0
 38 48  1  0
 39 49  1  0
 39 50  1  0
 41 51  1  0
 41 52  1  0
 42 53  1  0
 42 54  1  0
 18 35  1  0
M  END
>  <attachment_point>  (146) 
32

>  <score>  (146) 
<NA>

$$$$
4djw
     RDKit          3D

 49 53  0  0  0  0  0  0  0  0999 V2000
   22.4950   11.8750   22.5810 C   0  0  0  0  0  0  0  0  0  0  0  0
   22.5380    9.4930   22.4640 N   0  0  0  0  0  0  0  0  0  0  0  0
   22.3600   13.0630   22.3480 O   0  0  0  0  0  0  0  0  0  0  0  0
   22.3390   10.6680   21.5610 C   0  0  0  0  0  0  0  0  0  0  0  0
   22.7860   11.3350   23.8120 N   0  0  0  0  0  0  0  0  0  0  0  0
   22.7800    9.9140   23.7010 C   0  0  0  0  0  0  0  0  0  0  0  0
   22.9970    9.1110   24.7490 N   0  0  0  0  0  0  0  0  0  0  0  0
   23.0220   12.1410   25.0180 C   0  0  0  0  0  0  0  0  0  0  0  0
   20.9020   10.6270   21.0050 C   0  0  0  0  0  0  0  0  0  0  0  0
   20.2720    9.4140   20.7470 C   0  0  0  0  0  0  0  0  0  0  0  0
   18.9690    9.3760   20.2600 C   0  0  0  0  0  0  0  0  0  0  0  0
   18.2800   10.5440   20.0210 C   0  0  0  0  0  0  0  0  0  0  0  0
   18.8920   11.7530   20.2590 C   0  0  0  0  0  0  0  0  0  0  0  0
   20.1950   11.7970   20.7440 C   0  0  0  0  0  0  0  0  0  0  0  0
   23.4880   10.6920   20.5300 C   0  0  0  0  0  0  0  0  0  0  0  0
   23.2110   10.7890   19.1730 C   0  0  0  0  0  0  0  0  0  0  0  0
   24.2350   10.8650   18.2430 C   0  0  0  0  0  0  0  0  0  0  0  0
   25.5500   10.8410   18.6560 C   0  0  0  0  0  0  0  0  0  0  0  0
   25.8710   10.7460   20.0070 C   0  0  0  0  0  0  0  0  0  0  0  0
   24.8260   10.6610   20.9430 C   0  0  0  0  0  0  0  0  0  0  0  0
    0.0000    0.0000    0.0000 H   0  0  0  0  0  0  0  0  0  0  0  0
    0.0000    0.0000    0.0000 H   0  0  0  0  0  0  0  0  0  0  0  0
    0.0000    0.0000    0.0000 H   0  0  0  0  0  0  0  0  0  0  0  0
    0.0000    0.0000    0.0000 H   0  0  0  0  0  0  0  0  0  0  0  0
    0.0000    0.0000    0.0000 H   0  0  0  0  0  0  0  0  0  0  0  0
    0.0000    0.0000    0.0000 H   0  0  0  0  0  0  0  0  0  0  0  0
    0.0000    0.0000    0.0000 H   0  0  0  0  0  0  0  0  0  0  0  0
    0.0000    0.0000    0.0000 H   0  0  0  0  0  0  0  0  0  0  0  0
    0.0000    0.0000    0.0000 H   0  0  0  0  0  0  0  0  0  0  0  0
    0.0000    0.0000    0.0000 H   0  0  0  0  0  0  0  0  0  0  0  0
    0.0000    0.0000    0.0000 H   0  0  0  0  0  0  0  0  0  0  0  0
    0.0000    0.0000    0.0000 H   0  0  0  0  0  0  0  0  0  0  0  0
    0.0000    0.0000    0.0000 H   0  0  0  0  0  0  0  0  0  0  0  0
    0.0000    0.0000    0.0000 H   0  0  0  0  0  0  0  0  0  0  0  0
   12.4528    5.2838    9.0928 C   0  0  0  0  0  0  0  0  0  0  0  0
   12.5522    4.9086    7.7676 C   0  0  0  0  0  0  0  0  0  0  0  0
   11.3142    4.5397    7.3875 N   0  0  0  0  0  0  0  0  0  0  0  0
   10.4500    4.6730    8.4308 C   0  0  0  0  0  0  0  0  0  0  0  0
    9.1038    4.4474    8.6055 C   0  0  0  0  0  0  0  0  0  0  0  0
    8.4645    4.6749    9.8090 C   0  0  0  0  0  0  0  0  0  0  0  0
    9.1739    5.1471   10.9004 C   0  0  0  0  0  0  0  0  0  0  0  0
   10.5184    5.3762   10.7388 C   0  0  0  0  0  0  0  0  0  0  0  0
   11.1499    5.1467    9.5340 C   0  0  0  0  0  0  0  0  0  0  0  0
   13.4582    4.9110    7.1497 H   0  0  0  0  0  0  0  0  0  0  0  0
   11.0611    4.2052    6.4420 H   0  0  0  0  0  0  0  0  0  0  0  0
    8.5321    4.0722    7.7439 H   0  0  0  0  0  0  0  0  0  0  0  0
    7.3913    4.4746    9.8795 H   0  0  0  0  0  0  0  0  0  0  0  0
    8.6386    5.3140   11.8293 H   0  0  0  0  0  0  0  0  0  0  0  0
   11.0712    5.7441   11.5888 H   0  0  0  0  0  0  0  0  0  0  0  0
  1  3  2  0
  1  4  1  0
  1  5  1  0
  2  4  1  0
  2  6  1  0
  4  9  1  0
  4 15  1  0
  5  6  1  0
  5  8  1  0
  6  7  2  3
  9 10  2  0
  9 14  1  0
 10 11  1  0
 11 12  2  0
 12 13  1  0
 13 14  2  0
 15 16  2  0
 15 20  1  0
 16 17  1  0
 17 18  2  0
 18 19  1  0
 19 20  2  0
  2 21  1  0
  7 22  1  0
  8 23  1  0
  8 24  1  0
  8 25  1  0
 10 26  1  0
 11 27  1  0
 12 28  1  0
 13 29  1  0
 14 30  1  0
 16 31  1  0
 17 32  1  0
 19 33  1  0
 20 34  1  0
 35 36  2  0
 36 37  1  0
 37 38  1  0
 38 39  2  0
 39 40  1  0
 40 41  2  0
 41 42  1  0
 42 43  2  0
 43 35  1  0
 43 38  1  0
 36 44  1  0
 37 45  1  0
 39 46  1  0
 40 47  1  0
 41 48  1  0
 42 49  1  0
 18 35  1  0
M  END
>  <attachment_point>  (147) 
32

>  <score>  (147) 
<NA>

$$$$
4djw
     RDKit          3D

 50 54  0  0  0  0  0  0  0  0999 V2000
   22.4950   11.8750   22.5810 C   0  0  0  0  0  0  0  0  0  0  0  0
   22.5380    9.4930   22.4640 N   0  0  0  0  0  0  0  0  0  0  0  0
   22.3600   13.0630   22.3480 O   0  0  0  0  0  0  0  0  0  0  0  0
   22.3390   10.6680   21.5610 C   0  0  0  0  0  0  0  0  0  0  0  0
   22.7860   11.3350   23.8120 N   0  0  0  0  0  0  0  0  0  0  0  0
   22.7800    9.9140   23.7010 C   0  0  0  0  0  0  0  0  0  0  0  0
   22.9970    9.1110   24.7490 N   0  0  0  0  0  0  0  0  0  0  0  0
   23.0220   12.1410   25.0180 C   0  0  0  0  0  0  0  0  0  0  0  0
   20.9020   10.6270   21.0050 C   0  0  0  0  0  0  0  0  0  0  0  0
   20.2720    9.4140   20.7470 C   0  0  0  0  0  0  0  0  0  0  0  0
   18.9690    9.3760   20.2600 C   0  0  0  0  0  0  0  0  0  0  0  0
   18.2800   10.5440   20.0210 C   0  0  0  0  0  0  0  0  0  0  0  0
   18.8920   11.7530   20.2590 C   0  0  0  0  0  0  0  0  0  0  0  0
   20.1950   11.7970   20.7440 C   0  0  0  0  0  0  0  0  0  0  0  0
   23.4880   10.6920   20.5300 C   0  0  0  0  0  0  0  0  0  0  0  0
   23.2110   10.7890   19.1730 C   0  0  0  0  0  0  0  0  0  0  0  0
   24.2350   10.8650   18.2430 C   0  0  0  0  0  0  0  0  0  0  0  0
   25.5500   10.8410   18.6560 C   0  0  0  0  0  0  0  0  0  0  0  0
   25.8710   10.7460   20.0070 C   0  0  0  0  0  0  0  0  0  0  0  0
   24.8260   10.6610   20.9430 C   0  0  0  0  0  0  0  0  0  0  0  0
    0.0000    0.0000    0.0000 H   0  0  0  0  0  0  0  0  0  0  0  0
    0.0000    0.0000    0.0000 H   0  0  0  0  0  0  0  0  0  0  0  0
    0.0000    0.0000    0.0000 H   0  0  0  0  0  0  0  0  0  0  0  0
    0.0000    0.0000    0.0000 H   0  0  0  0  0  0  0  0  0  0  0  0
    0.0000    0.0000    0.0000 H   0  0  0  0  0  0  0  0  0  0  0  0
    0.0000    0.0000    0.0000 H   0  0  0  0  0  0  0  0  0  0  0  0
    0.0000    0.0000    0.0000 H   0  0  0  0  0  0  0  0  0  0  0  0
    0.0000    0.0000    0.0000 H   0  0  0  0  0  0  0  0  0  0  0  0
    0.0000    0.0000    0.0000 H   0  0  0  0  0  0  0  0  0  0  0  0
    0.0000    0.0000    0.0000 H   0  0  0  0  0  0  0  0  0  0  0  0
    0.0000    0.0000    0.0000 H   0  0  0  0  0  0  0  0  0  0  0  0
    0.0000    0.0000    0.0000 H   0  0  0  0  0  0  0  0  0  0  0  0
    0.0000    0.0000    0.0000 H   0  0  0  0  0  0  0  0  0  0  0  0
    0.0000    0.0000    0.0000 H   0  0  0  0  0  0  0  0  0  0  0  0
   12.4471    5.2814    9.0886 C   0  0  0  0  0  0  0  0  0  0  0  0
   12.2295    3.9469    8.8136 C   0  0  0  0  0  0  0  0  0  0  0  0
   11.1948    3.5300    8.0600 N   0  0  0  0  0  0  0  0  0  0  0  0
   10.3295    4.4291    7.5465 C   0  0  0  0  0  0  0  0  0  0  0  0
    9.2750    3.9513    6.7736 C   0  0  0  0  0  0  0  0  0  0  0  0
    8.3691    4.8380    6.2309 C   0  0  0  0  0  0  0  0  0  0  0  0
    8.5531    6.1805    6.4834 C   0  0  0  0  0  0  0  0  0  0  0  0
    9.5996    6.6666    7.2516 C   0  0  0  0  0  0  0  0  0  0  0  0
   10.5047    5.7742    7.7932 C   0  0  0  0  0  0  0  0  0  0  0  0
   11.5659    6.2055    8.5664 C   0  0  0  0  0  0  0  0  0  0  0  0
   12.9312    3.2207    9.2303 H   0  0  0  0  0  0  0  0  0  0  0  0
    9.1277    2.8980    6.5734 H   0  0  0  0  0  0  0  0  0  0  0  0
    7.5396    4.4944    5.6260 H   0  0  0  0  0  0  0  0  0  0  0  0
    7.8430    6.8839    6.0588 H   0  0  0  0  0  0  0  0  0  0  0  0
    9.7535    7.7096    7.4553 H   0  0  0  0  0  0  0  0  0  0  0  0
   11.7034    7.2777    8.7616 H   0  0  0  0  0  0  0  0  0  0  0  0
  1  3  2  0
  1  4  1  0
  1  5  1  0
  2  4  1  0
  2  6  1  0
  4  9  1  0
  4 15  1  0
  5  6  1  0
  5  8  1  0
  6  7  2  3
  9 10  2  0
  9 14  1  0
 10 11  1  0
 11 12  2  0
 12 13  1  0
 13 14  2  0
 15 16  2  0
 15 20  1  0
 16 17  1  0
 17 18  2  0
 18 19  1  0
 19 20  2  0
  2 21  1  0
  7 22  1  0
  8 23  1  0
  8 24  1  0
  8 25  1  0
 10 26  1  0
 11 27  1  0
 12 28  1  0
 13 29  1  0
 14 30  1  0
 16 31  1  0
 17 32  1  0
 19 33  1  0
 20 34  1  0
 35 36  2  0
 36 37  1  0
 37 38  2  0
 38 39  1  0
 39 40  2  0
 40 41  1  0
 41 42  2  0
 42 43  1  0
 43 44  2  0
 44 35  1  0
 43 38  1  0
 36 45  1  0
 39 46  1  0
 40 47  1  0
 41 48  1  0
 42 49  1  0
 44 50  1  0
 18 35  1  0
M  END
>  <attachment_point>  (148) 
32

>  <score>  (148) 
<NA>

$$$$
4djw
     RDKit          3D

 53 55  0  0  0  0  0  0  0  0999 V2000
   22.4950   11.8750   22.5810 C   0  0  0  0  0  0  0  0  0  0  0  0
   22.5380    9.4930   22.4640 N   0  0  0  0  0  0  0  0  0  0  0  0
   22.3600   13.0630   22.3480 O   0  0  0  0  0  0  0  0  0  0  0  0
   22.3390   10.6680   21.5610 C   0  0  0  0  0  0  0  0  0  0  0  0
   22.7860   11.3350   23.8120 N   0  0  0  0  0  0  0  0  0  0  0  0
   22.7800    9.9140   23.7010 C   0  0  0  0  0  0  0  0  0  0  0  0
   22.9970    9.1110   24.7490 N   0  0  0  0  0  0  0  0  0  0  0  0
   23.0220   12.1410   25.0180 C   0  0  0  0  0  0  0  0  0  0  0  0
   20.9020   10.6270   21.0050 C   0  0  0  0  0  0  0  0  0  0  0  0
   20.2720    9.4140   20.7470 C   0  0  0  0  0  0  0  0  0  0  0  0
   18.9690    9.3760   20.2600 C   0  0  0  0  0  0  0  0  0  0  0  0
   18.2800   10.5440   20.0210 C   0  0  0  0  0  0  0  0  0  0  0  0
   18.8920   11.7530   20.2590 C   0  0  0  0  0  0  0  0  0  0  0  0
   20.1950   11.7970   20.7440 C   0  0  0  0  0  0  0  0  0  0  0  0
   23.4880   10.6920   20.5300 C   0  0  0  0  0  0  0  0  0  0  0  0
   23.2110   10.7890   19.1730 C   0  0  0  0  0  0  0  0  0  0  0  0
   24.2350   10.8650   18.2430 C   0  0  0  0  0  0  0  0  0  0  0  0
   25.5500   10.8410   18.6560 C   0  0  0  0  0  0  0  0  0  0  0  0
   25.8710   10.7460   20.0070 C   0  0  0  0  0  0  0  0  0  0  0  0
   24.8260   10.6610   20.9430 C   0  0  0  0  0  0  0  0  0  0  0  0
    0.0000    0.0000    0.0000 H   0  0  0  0  0  0  0  0  0  0  0  0
    0.0000    0.0000    0.0000 H   0  0  0  0  0  0  0  0  0  0  0  0
    0.0000    0.0000    0.0000 H   0  0  0  0  0  0  0  0  0  0  0  0
    0.0000    0.0000    0.0000 H   0  0  0  0  0  0  0  0  0  0  0  0
    0.0000    0.0000    0.0000 H   0  0  0  0  0  0  0  0  0  0  0  0
    0.0000    0.0000    0.0000 H   0  0  0  0  0  0  0  0  0  0  0  0
    0.0000    0.0000    0.0000 H   0  0  0  0  0  0  0  0  0  0  0  0
    0.0000    0.0000    0.0000 H   0  0  0  0  0  0  0  0  0  0  0  0
    0.0000    0.0000    0.0000 H   0  0  0  0  0  0  0  0  0  0  0  0
    0.0000    0.0000    0.0000 H   0  0  0  0  0  0  0  0  0  0  0  0
    0.0000    0.0000    0.0000 H   0  0  0  0  0  0  0  0  0  0  0  0
    0.0000    0.0000    0.0000 H   0  0  0  0  0  0  0  0  0  0  0  0
    0.0000    0.0000    0.0000 H   0  0  0  0  0  0  0  0  0  0  0  0
    0.0000    0.0000    0.0000 H   0  0  0  0  0  0  0  0  0  0  0  0
   12.4702    5.2912    9.1055 O   0  0  0  0  0  0  0  0  0  0  0  0
   12.2920    3.9127    9.3758 C   0  0  0  0  0  0  0  0  0  0  0  0
   11.1383    3.3728    8.5484 C   0  0  0  0  0  0  0  0  0  0  0  0
   11.3979    3.5383    7.0709 C   0  0  0  0  0  0  0  0  0  0  0  0
   12.5886    2.8406    6.6465 N   0  0  0  0  0  0  0  0  0  0  0  0
   12.8236    3.0086    5.2308 C   0  0  0  0  0  0  0  0  0  0  0  0
   12.5064    1.4151    6.8928 C   0  0  0  0  0  0  0  0  0  0  0  0
   12.0923    3.7652   10.4531 H   0  0  0  0  0  0  0  0  0  0  0  0
   13.2260    3.4236    9.0350 H   0  0  0  0  0  0  0  0  0  0  0  0
   10.2206    3.9791    8.7738 H   0  0  0  0  0  0  0  0  0  0  0  0
   10.9068    2.3361    8.8214 H   0  0  0  0  0  0  0  0  0  0  0  0
   11.5854    4.6226    6.9019 H   0  0  0  0  0  0  0  0  0  0  0  0
   10.4867    3.1780    6.5427 H   0  0  0  0  0  0  0  0  0  0  0  0
   13.6139    3.7769    5.0790 H   0  0  0  0  0  0  0  0  0  0  0  0
   11.9041    3.3184    4.6893 H   0  0  0  0  0  0  0  0  0  0  0  0
   13.1616    2.0703    4.7440 H   0  0  0  0  0  0  0  0  0  0  0  0
   13.4996    0.9918    6.5954 H   0  0  0  0  0  0  0  0  0  0  0  0
   12.3220    1.1523    7.9328 H   0  0  0  0  0  0  0  0  0  0  0  0
   11.7740    0.9221    6.1894 H   0  0  0  0  0  0  0  0  0  0  0  0
  1  3  2  0
  1  4  1  0
  1  5  1  0
  2  4  1  0
  2  6  1  0
  4  9  1  0
  4 15  1  0
  5  6  1  0
  5  8  1  0
  6  7  2  3
  9 10  2  0
  9 14  1  0
 10 11  1  0
 11 12  2  0
 12 13  1  0
 13 14  2  0
 15 16  2  0
 15 20  1  0
 16 17  1  0
 17 18  2  0
 18 19  1  0
 19 20  2  0
  2 21  1  0
  7 22  1  0
  8 23  1  0
  8 24  1  0
  8 25  1  0
 10 26  1  0
 11 27  1  0
 12 28  1  0
 13 29  1  0
 14 30  1  0
 16 31  1  0
 17 32  1  0
 19 33  1  0
 20 34  1  0
 35 36  1  0
 36 37  1  0
 37 38  1  0
 38 39  1  0
 39 40  1  0
 39 41  1  0
 36 42  1  0
 36 43  1  0
 37 44  1  0
 37 45  1  0
 38 46  1  0
 38 47  1  0
 40 48  1  0
 40 49  1  0
 40 50  1  0
 41 51  1  0
 41 52  1  0
 41 53  1  0
 18 35  1  0
M  END
>  <attachment_point>  (149) 
32

>  <score>  (149) 
<NA>

$$$$
4djw
     RDKit          3D

 47 50  0  0  0  0  0  0  0  0999 V2000
   22.4950   11.8750   22.5810 C   0  0  0  0  0  0  0  0  0  0  0  0
   22.5380    9.4930   22.4640 N   0  0  0  0  0  0  0  0  0  0  0  0
   22.3600   13.0630   22.3480 O   0  0  0  0  0  0  0  0  0  0  0  0
   22.3390   10.6680   21.5610 C   0  0  0  0  0  0  0  0  0  0  0  0
   22.7860   11.3350   23.8120 N   0  0  0  0  0  0  0  0  0  0  0  0
   22.7800    9.9140   23.7010 C   0  0  0  0  0  0  0  0  0  0  0  0
   22.9970    9.1110   24.7490 N   0  0  0  0  0  0  0  0  0  0  0  0
   23.0220   12.1410   25.0180 C   0  0  0  0  0  0  0  0  0  0  0  0
   20.9020   10.6270   21.0050 C   0  0  0  0  0  0  0  0  0  0  0  0
   20.2720    9.4140   20.7470 C   0  0  0  0  0  0  0  0  0  0  0  0
   18.9690    9.3760   20.2600 C   0  0  0  0  0  0  0  0  0  0  0  0
   18.2800   10.5440   20.0210 C   0  0  0  0  0  0  0  0  0  0  0  0
   18.8920   11.7530   20.2590 C   0  0  0  0  0  0  0  0  0  0  0  0
   20.1950   11.7970   20.7440 C   0  0  0  0  0  0  0  0  0  0  0  0
   23.4880   10.6920   20.5300 C   0  0  0  0  0  0  0  0  0  0  0  0
   23.2110   10.7890   19.1730 C   0  0  0  0  0  0  0  0  0  0  0  0
   24.2350   10.8650   18.2430 C   0  0  0  0  0  0  0  0  0  0  0  0
   25.5500   10.8410   18.6560 C   0  0  0  0  0  0  0  0  0  0  0  0
   25.8710   10.7460   20.0070 C   0  0  0  0  0  0  0  0  0  0  0  0
   24.8260   10.6610   20.9430 C   0  0  0  0  0  0  0  0  0  0  0  0
    0.0000    0.0000    0.0000 H   0  0  0  0  0  0  0  0  0  0  0  0
    0.0000    0.0000    0.0000 H   0  0  0  0  0  0  0  0  0  0  0  0
    0.0000    0.0000    0.0000 H   0  0  0  0  0  0  0  0  0  0  0  0
    0.0000    0.0000    0.0000 H   0  0  0  0  0  0  0  0  0  0  0  0
    0.0000    0.0000    0.0000 H   0  0  0  0  0  0  0  0  0  0  0  0
    0.0000    0.0000    0.0000 H   0  0  0  0  0  0  0  0  0  0  0  0
    0.0000    0.0000    0.0000 H   0  0  0  0  0  0  0  0  0  0  0  0
    0.0000    0.0000    0.0000 H   0  0  0  0  0  0  0  0  0  0  0  0
    0.0000    0.0000    0.0000 H   0  0  0  0  0  0  0  0  0  0  0  0
    0.0000    0.0000    0.0000 H   0  0  0  0  0  0  0  0  0  0  0  0
    0.0000    0.0000    0.0000 H   0  0  0  0  0  0  0  0  0  0  0  0
    0.0000    0.0000    0.0000 H   0  0  0  0  0  0  0  0  0  0  0  0
    0.0000    0.0000    0.0000 H   0  0  0  0  0  0  0  0  0  0  0  0
    0.0000    0.0000    0.0000 H   0  0  0  0  0  0  0  0  0  0  0  0
   12.4427    5.2795    9.0854 C   0  0  0  0  0  0  0  0  0  0  0  0
   12.8491    5.5568    7.6817 C   0  0  0  0  0  0  0  0  0  0  0  0
   13.5448    4.6403    6.9218 C   0  0  0  0  0  0  0  0  0  0  0  0
   13.8915    4.9706    5.6139 C   0  0  0  0  0  0  0  0  0  0  0  0
   13.5632    6.1862    5.0478 C   0  0  0  0  0  0  0  0  0  0  0  0
   12.8842    7.0514    5.8237 N   0  0  0  0  0  0  0  0  0  0  0  0
   12.5302    6.7639    7.1007 C   0  0  0  0  0  0  0  0  0  0  0  0
   12.3708    4.1874    9.2570 H   0  0  0  0  0  0  0  0  0  0  0  0
   11.5639    5.8428    9.3981 H   0  0  0  0  0  0  0  0  0  0  0  0
   13.7972    3.6943    7.3709 H   0  0  0  0  0  0  0  0  0  0  0  0
   14.4331    4.2415    5.0405 H   0  0  0  0  0  0  0  0  0  0  0  0
   13.8404    6.4314    4.0242 H   0  0  0  0  0  0  0  0  0  0  0  0
   11.9781    7.4769    7.7207 H   0  0  0  0  0  0  0  0  0  0  0  0
  1  3  2  0
  1  4  1  0
  1  5  1  0
  2  4  1  0
  2  6  1  0
  4  9  1  0
  4 15  1  0
  5  6  1  0
  5  8  1  0
  6  7  2  3
  9 10  2  0
  9 14  1  0
 10 11  1  0
 11 12  2  0
 12 13  1  0
 13 14  2  0
 15 16  2  0
 15 20  1  0
 16 17  1  0
 17 18  2  0
 18 19  1  0
 19 20  2  0
  2 21  1  0
  7 22  1  0
  8 23  1  0
  8 24  1  0
  8 25  1  0
 10 26  1  0
 11 27  1  0
 12 28  1  0
 13 29  1  0
 14 30  1  0
 16 31  1  0
 17 32  1  0
 19 33  1  0
 20 34  1  0
 35 36  1  0
 36 37  2  0
 37 38  1  0
 38 39  2  0
 39 40  1  0
 40 41  2  0
 41 36  1  0
 35 42  1  0
 35 43  1  0
 37 44  1  0
 38 45  1  0
 39 46  1  0
 41 47  1  0
 18 35  1  0
M  END
>  <attachment_point>  (150) 
32

>  <score>  (150) 
<NA>

$$$$
4djw
     RDKit          3D

 46 49  0  0  0  0  0  0  0  0999 V2000
   22.4950   11.8750   22.5810 C   0  0  0  0  0  0  0  0  0  0  0  0
   22.5380    9.4930   22.4640 N   0  0  0  0  0  0  0  0  0  0  0  0
   22.3600   13.0630   22.3480 O   0  0  0  0  0  0  0  0  0  0  0  0
   22.3390   10.6680   21.5610 C   0  0  0  0  0  0  0  0  0  0  0  0
   22.7860   11.3350   23.8120 N   0  0  0  0  0  0  0  0  0  0  0  0
   22.7800    9.9140   23.7010 C   0  0  0  0  0  0  0  0  0  0  0  0
   22.9970    9.1110   24.7490 N   0  0  0  0  0  0  0  0  0  0  0  0
   23.0220   12.1410   25.0180 C   0  0  0  0  0  0  0  0  0  0  0  0
   20.9020   10.6270   21.0050 C   0  0  0  0  0  0  0  0  0  0  0  0
   20.2720    9.4140   20.7470 C   0  0  0  0  0  0  0  0  0  0  0  0
   18.9690    9.3760   20.2600 C   0  0  0  0  0  0  0  0  0  0  0  0
   18.2800   10.5440   20.0210 C   0  0  0  0  0  0  0  0  0  0  0  0
   18.8920   11.7530   20.2590 C   0  0  0  0  0  0  0  0  0  0  0  0
   20.1950   11.7970   20.7440 C   0  0  0  0  0  0  0  0  0  0  0  0
   23.4880   10.6920   20.5300 C   0  0  0  0  0  0  0  0  0  0  0  0
   23.2110   10.7890   19.1730 C   0  0  0  0  0  0  0  0  0  0  0  0
   24.2350   10.8650   18.2430 C   0  0  0  0  0  0  0  0  0  0  0  0
   25.5500   10.8410   18.6560 C   0  0  0  0  0  0  0  0  0  0  0  0
   25.8710   10.7460   20.0070 C   0  0  0  0  0  0  0  0  0  0  0  0
   24.8260   10.6610   20.9430 C   0  0  0  0  0  0  0  0  0  0  0  0
    0.0000    0.0000    0.0000 H   0  0  0  0  0  0  0  0  0  0  0  0
    0.0000    0.0000    0.0000 H   0  0  0  0  0  0  0  0  0  0  0  0
    0.0000    0.0000    0.0000 H   0  0  0  0  0  0  0  0  0  0  0  0
    0.0000    0.0000    0.0000 H   0  0  0  0  0  0  0  0  0  0  0  0
    0.0000    0.0000    0.0000 H   0  0  0  0  0  0  0  0  0  0  0  0
    0.0000    0.0000    0.0000 H   0  0  0  0  0  0  0  0  0  0  0  0
    0.0000    0.0000    0.0000 H   0  0  0  0  0  0  0  0  0  0  0  0
    0.0000    0.0000    0.0000 H   0  0  0  0  0  0  0  0  0  0  0  0
    0.0000    0.0000    0.0000 H   0  0  0  0  0  0  0  0  0  0  0  0
    0.0000    0.0000    0.0000 H   0  0  0  0  0  0  0  0  0  0  0  0
    0.0000    0.0000    0.0000 H   0  0  0  0  0  0  0  0  0  0  0  0
    0.0000    0.0000    0.0000 H   0  0  0  0  0  0  0  0  0  0  0  0
    0.0000    0.0000    0.0000 H   0  0  0  0  0  0  0  0  0  0  0  0
    0.0000    0.0000    0.0000 H   0  0  0  0  0  0  0  0  0  0  0  0
   12.4654    5.2891    9.1020 C   0  0  0  0  0  0  0  0  0  0  0  0
   12.0043    3.9869    9.1710 C   0  0  0  0  0  0  0  0  0  0  0  0
   10.9401    3.5960    8.3719 C   0  0  0  0  0  0  0  0  0  0  0  0
   10.3145    4.4637    7.4994 C   0  0  0  0  0  0  0  0  0  0  0  0
   10.7864    5.7679    7.4392 C   0  0  0  0  0  0  0  0  0  0  0  0
   11.8537    6.1866    8.2310 C   0  0  0  0  0  0  0  0  0  0  0  0
   12.2662    7.4999    8.1148 O   0  0  0  0  0  0  0  0  0  0  0  0
   12.4483    3.2781    9.8243 H   0  0  0  0  0  0  0  0  0  0  0  0
   10.5895    2.5669    8.4387 H   0  0  0  0  0  0  0  0  0  0  0  0
    9.4838    4.1804    6.8676 H   0  0  0  0  0  0  0  0  0  0  0  0
   10.3273    6.4925    6.7668 H   0  0  0  0  0  0  0  0  0  0  0  0
   12.5160    7.9317    7.2310 H   0  0  0  0  0  0  0  0  0  0  0  0
  1  3  2  0
  1  4  1  0
  1  5  1  0
  2  4  1  0
  2  6  1  0
  4  9  1  0
  4 15  1  0
  5  6  1  0
  5  8  1  0
  6  7  2  3
  9 10  2  0
  9 14  1  0
 10 11  1  0
 11 12  2  0
 12 13  1  0
 13 14  2  0
 15 16  2  0
 15 20  1  0
 16 17  1  0
 17 18  2  0
 18 19  1  0
 19 20  2  0
  2 21  1  0
  7 22  1  0
  8 23  1  0
  8 24  1  0
  8 25  1  0
 10 26  1  0
 11 27  1  0
 12 28  1  0
 13 29  1  0
 14 30  1  0
 16 31  1  0
 17 32  1  0
 19 33  1  0
 20 34  1  0
 35 36  2  0
 36 37  1  0
 37 38  2  0
 38 39  1  0
 39 40  2  0
 40 41  1  0
 40 35  1  0
 36 42  1  0
 37 43  1  0
 38 44  1  0
 39 45  1  0
 41 46  1  0
 18 35  1  0
M  END
>  <attachment_point>  (151) 
32

>  <score>  (151) 
<NA>

$$$$
4djw
     RDKit          3D

 45 48  0  0  0  0  0  0  0  0999 V2000
   22.4950   11.8750   22.5810 C   0  0  0  0  0  0  0  0  0  0  0  0
   22.5380    9.4930   22.4640 N   0  0  0  0  0  0  0  0  0  0  0  0
   22.3600   13.0630   22.3480 O   0  0  0  0  0  0  0  0  0  0  0  0
   22.3390   10.6680   21.5610 C   0  0  0  0  0  0  0  0  0  0  0  0
   22.7860   11.3350   23.8120 N   0  0  0  0  0  0  0  0  0  0  0  0
   22.7800    9.9140   23.7010 C   0  0  0  0  0  0  0  0  0  0  0  0
   22.9970    9.1110   24.7490 N   0  0  0  0  0  0  0  0  0  0  0  0
   23.0220   12.1410   25.0180 C   0  0  0  0  0  0  0  0  0  0  0  0
   20.9020   10.6270   21.0050 C   0  0  0  0  0  0  0  0  0  0  0  0
   20.2720    9.4140   20.7470 C   0  0  0  0  0  0  0  0  0  0  0  0
   18.9690    9.3760   20.2600 C   0  0  0  0  0  0  0  0  0  0  0  0
   18.2800   10.5440   20.0210 C   0  0  0  0  0  0  0  0  0  0  0  0
   18.8920   11.7530   20.2590 C   0  0  0  0  0  0  0  0  0  0  0  0
   20.1950   11.7970   20.7440 C   0  0  0  0  0  0  0  0  0  0  0  0
   23.4880   10.6920   20.5300 C   0  0  0  0  0  0  0  0  0  0  0  0
   23.2110   10.7890   19.1730 C   0  0  0  0  0  0  0  0  0  0  0  0
   24.2350   10.8650   18.2430 C   0  0  0  0  0  0  0  0  0  0  0  0
   25.5500   10.8410   18.6560 C   0  0  0  0  0  0  0  0  0  0  0  0
   25.8710   10.7460   20.0070 C   0  0  0  0  0  0  0  0  0  0  0  0
   24.8260   10.6610   20.9430 C   0  0  0  0  0  0  0  0  0  0  0  0
    0.0000    0.0000    0.0000 H   0  0  0  0  0  0  0  0  0  0  0  0
    0.0000    0.0000    0.0000 H   0  0  0  0  0  0  0  0  0  0  0  0
    0.0000    0.0000    0.0000 H   0  0  0  0  0  0  0  0  0  0  0  0
    0.0000    0.0000    0.0000 H   0  0  0  0  0  0  0  0  0  0  0  0
    0.0000    0.0000    0.0000 H   0  0  0  0  0  0  0  0  0  0  0  0
    0.0000    0.0000    0.0000 H   0  0  0  0  0  0  0  0  0  0  0  0
    0.0000    0.0000    0.0000 H   0  0  0  0  0  0  0  0  0  0  0  0
    0.0000    0.0000    0.0000 H   0  0  0  0  0  0  0  0  0  0  0  0
    0.0000    0.0000    0.0000 H   0  0  0  0  0  0  0  0  0  0  0  0
    0.0000    0.0000    0.0000 H   0  0  0  0  0  0  0  0  0  0  0  0
    0.0000    0.0000    0.0000 H   0  0  0  0  0  0  0  0  0  0  0  0
    0.0000    0.0000    0.0000 H   0  0  0  0  0  0  0  0  0  0  0  0
    0.0000    0.0000    0.0000 H   0  0  0  0  0  0  0  0  0  0  0  0
    0.0000    0.0000    0.0000 H   0  0  0  0  0  0  0  0  0  0  0  0
   12.4575    5.2858    9.0962 C   0  0  0  0  0  0  0  0  0  0  0  0
   11.9999    3.9214    9.6283 C   0  0  0  0  0  0  0  0  0  0  0  0
   13.2557    3.3743    8.9341 C   0  0  0  0  0  0  0  0  0  0  0  0
   13.0232    4.4941    7.9128 C   0  0  0  0  0  0  0  0  0  0  0  0
   11.6476    5.9682    8.8563 H   0  0  0  0  0  0  0  0  0  0  0  0
   11.0740    3.6085    9.0860 H   0  0  0  0  0  0  0  0  0  0  0  0
   11.9906    3.8247   10.7099 H   0  0  0  0  0  0  0  0  0  0  0  0
   14.1408    3.6143    9.5532 H   0  0  0  0  0  0  0  0  0  0  0  0
   13.1675    2.3651    8.5458 H   0  0  0  0  0  0  0  0  0  0  0  0
   13.9334    4.9105    7.4725 H   0  0  0  0  0  0  0  0  0  0  0  0
   12.2101    4.2256    7.2024 H   0  0  0  0  0  0  0  0  0  0  0  0
  1  3  2  0
  1  4  1  0
  1  5  1  0
  2  4  1  0
  2  6  1  0
  4  9  1  0
  4 15  1  0
  5  6  1  0
  5  8  1  0
  6  7  2  3
  9 10  2  0
  9 14  1  0
 10 11  1  0
 11 12  2  0
 12 13  1  0
 13 14  2  0
 15 16  2  0
 15 20  1  0
 16 17  1  0
 17 18  2  0
 18 19  1  0
 19 20  2  0
  2 21  1  0
  7 22  1  0
  8 23  1  0
  8 24  1  0
  8 25  1  0
 10 26  1  0
 11 27  1  0
 12 28  1  0
 13 29  1  0
 14 30  1  0
 16 31  1  0
 17 32  1  0
 19 33  1  0
 20 34  1  0
 35 36  1  0
 36 37  1  0
 37 38  1  0
 38 35  1  0
 35 39  1  0
 36 40  1  0
 36 41  1  0
 37 42  1  0
 37 43  1  0
 38 44  1  0
 38 45  1  0
 18 35  1  0
M  END
>  <attachment_point>  (152) 
32

>  <score>  (152) 
<NA>

$$$$
4djw
     RDKit          3D

 40 42  0  0  0  0  0  0  0  0999 V2000
   22.4950   11.8750   22.5810 C   0  0  0  0  0  0  0  0  0  0  0  0
   22.5380    9.4930   22.4640 N   0  0  0  0  0  0  0  0  0  0  0  0
   22.3600   13.0630   22.3480 O   0  0  0  0  0  0  0  0  0  0  0  0
   22.3390   10.6680   21.5610 C   0  0  0  0  0  0  0  0  0  0  0  0
   22.7860   11.3350   23.8120 N   0  0  0  0  0  0  0  0  0  0  0  0
   22.7800    9.9140   23.7010 C   0  0  0  0  0  0  0  0  0  0  0  0
   22.9970    9.1110   24.7490 N   0  0  0  0  0  0  0  0  0  0  0  0
   23.0220   12.1410   25.0180 C   0  0  0  0  0  0  0  0  0  0  0  0
   20.9020   10.6270   21.0050 C   0  0  0  0  0  0  0  0  0  0  0  0
   20.2720    9.4140   20.7470 C   0  0  0  0  0  0  0  0  0  0  0  0
   18.9690    9.3760   20.2600 C   0  0  0  0  0  0  0  0  0  0  0  0
   18.2800   10.5440   20.0210 C   0  0  0  0  0  0  0  0  0  0  0  0
   18.8920   11.7530   20.2590 C   0  0  0  0  0  0  0  0  0  0  0  0
   20.1950   11.7970   20.7440 C   0  0  0  0  0  0  0  0  0  0  0  0
   23.4880   10.6920   20.5300 C   0  0  0  0  0  0  0  0  0  0  0  0
   23.2110   10.7890   19.1730 C   0  0  0  0  0  0  0  0  0  0  0  0
   24.2350   10.8650   18.2430 C   0  0  0  0  0  0  0  0  0  0  0  0
   25.5500   10.8410   18.6560 C   0  0  0  0  0  0  0  0  0  0  0  0
   25.8710   10.7460   20.0070 C   0  0  0  0  0  0  0  0  0  0  0  0
   24.8260   10.6610   20.9430 C   0  0  0  0  0  0  0  0  0  0  0  0
    0.0000    0.0000    0.0000 H   0  0  0  0  0  0  0  0  0  0  0  0
    0.0000    0.0000    0.0000 H   0  0  0  0  0  0  0  0  0  0  0  0
    0.0000    0.0000    0.0000 H   0  0  0  0  0  0  0  0  0  0  0  0
    0.0000    0.0000    0.0000 H   0  0  0  0  0  0  0  0  0  0  0  0
    0.0000    0.0000    0.0000 H   0  0  0  0  0  0  0  0  0  0  0  0
    0.0000    0.0000    0.0000 H   0  0  0  0  0  0  0  0  0  0  0  0
    0.0000    0.0000    0.0000 H   0  0  0  0  0  0  0  0  0  0  0  0
    0.0000    0.0000    0.0000 H   0  0  0  0  0  0  0  0  0  0  0  0
    0.0000    0.0000    0.0000 H   0  0  0  0  0  0  0  0  0  0  0  0
    0.0000    0.0000    0.0000 H   0  0  0  0  0  0  0  0  0  0  0  0
    0.0000    0.0000    0.0000 H   0  0  0  0  0  0  0  0  0  0  0  0
    0.0000    0.0000    0.0000 H   0  0  0  0  0  0  0  0  0  0  0  0
    0.0000    0.0000    0.0000 H   0  0  0  0  0  0  0  0  0  0  0  0
    0.0000    0.0000    0.0000 H   0  0  0  0  0  0  0  0  0  0  0  0
   12.4207    5.2702    9.0693 C   0  0  0  0  0  0  0  0  0  0  0  0
   12.6430    5.3375    7.8119 N   0  0  0  0  0  0  0  0  0  0  0  0
   11.2480    4.8002    9.6700 N   0  0  0  0  0  0  0  0  0  0  0  0
   11.8953    5.0181    7.1569 H   0  0  0  0  0  0  0  0  0  0  0  0
   10.7451    4.0062    9.2178 H   0  0  0  0  0  0  0  0  0  0  0  0
   10.8489    5.2015   10.5468 H   0  0  0  0  0  0  0  0  0  0  0  0
  1  3  2  0
  1  4  1  0
  1  5  1  0
  2  4  1  0
  2  6  1  0
  4  9  1  0
  4 15  1  0
  5  6  1  0
  5  8  1  0
  6  7  2  3
  9 10  2  0
  9 14  1  0
 10 11  1  0
 11 12  2  0
 12 13  1  0
 13 14  2  0
 15 16  2  0
 15 20  1  0
 16 17  1  0
 17 18  2  0
 18 19  1  0
 19 20  2  0
  2 21  1  0
  7 22  1  0
  8 23  1  0
  8 24  1  0
  8 25  1  0
 10 26  1  0
 11 27  1  0
 12 28  1  0
 13 29  1  0
 14 30  1  0
 16 31  1  0
 17 32  1  0
 19 33  1  0
 20 34  1  0
 35 36  2  3
 35 37  1  0
 36 38  1  0
 37 39  1  0
 37 40  1  0
 18 35  1  0
M  END
>  <attachment_point>  (153) 
32

>  <score>  (153) 
<NA>

$$$$
4djw
     RDKit          3D

 48 52  0  0  0  0  0  0  0  0999 V2000
   22.4950   11.8750   22.5810 C   0  0  0  0  0  0  0  0  0  0  0  0
   22.5380    9.4930   22.4640 N   0  0  0  0  0  0  0  0  0  0  0  0
   22.3600   13.0630   22.3480 O   0  0  0  0  0  0  0  0  0  0  0  0
   22.3390   10.6680   21.5610 C   0  0  0  0  0  0  0  0  0  0  0  0
   22.7860   11.3350   23.8120 N   0  0  0  0  0  0  0  0  0  0  0  0
   22.7800    9.9140   23.7010 C   0  0  0  0  0  0  0  0  0  0  0  0
   22.9970    9.1110   24.7490 N   0  0  0  0  0  0  0  0  0  0  0  0
   23.0220   12.1410   25.0180 C   0  0  0  0  0  0  0  0  0  0  0  0
   20.9020   10.6270   21.0050 C   0  0  0  0  0  0  0  0  0  0  0  0
   20.2720    9.4140   20.7470 C   0  0  0  0  0  0  0  0  0  0  0  0
   18.9690    9.3760   20.2600 C   0  0  0  0  0  0  0  0  0  0  0  0
   18.2800   10.5440   20.0210 C   0  0  0  0  0  0  0  0  0  0  0  0
   18.8920   11.7530   20.2590 C   0  0  0  0  0  0  0  0  0  0  0  0
   20.1950   11.7970   20.7440 C   0  0  0  0  0  0  0  0  0  0  0  0
   23.4880   10.6920   20.5300 C   0  0  0  0  0  0  0  0  0  0  0  0
   23.2110   10.7890   19.1730 C   0  0  0  0  0  0  0  0  0  0  0  0
   24.2350   10.8650   18.2430 C   0  0  0  0  0  0  0  0  0  0  0  0
   25.5500   10.8410   18.6560 C   0  0  0  0  0  0  0  0  0  0  0  0
   25.8710   10.7460   20.0070 C   0  0  0  0  0  0  0  0  0  0  0  0
   24.8260   10.6610   20.9430 C   0  0  0  0  0  0  0  0  0  0  0  0
    0.0000    0.0000    0.0000 H   0  0  0  0  0  0  0  0  0  0  0  0
    0.0000    0.0000    0.0000 H   0  0  0  0  0  0  0  0  0  0  0  0
    0.0000    0.0000    0.0000 H   0  0  0  0  0  0  0  0  0  0  0  0
    0.0000    0.0000    0.0000 H   0  0  0  0  0  0  0  0  0  0  0  0
    0.0000    0.0000    0.0000 H   0  0  0  0  0  0  0  0  0  0  0  0
    0.0000    0.0000    0.0000 H   0  0  0  0  0  0  0  0  0  0  0  0
    0.0000    0.0000    0.0000 H   0  0  0  0  0  0  0  0  0  0  0  0
    0.0000    0.0000    0.0000 H   0  0  0  0  0  0  0  0  0  0  0  0
    0.0000    0.0000    0.0000 H   0  0  0  0  0  0  0  0  0  0  0  0
    0.0000    0.0000    0.0000 H   0  0  0  0  0  0  0  0  0  0  0  0
    0.0000    0.0000    0.0000 H   0  0  0  0  0  0  0  0  0  0  0  0
    0.0000    0.0000    0.0000 H   0  0  0  0  0  0  0  0  0  0  0  0
    0.0000    0.0000    0.0000 H   0  0  0  0  0  0  0  0  0  0  0  0
    0.0000    0.0000    0.0000 H   0  0  0  0  0  0  0  0  0  0  0  0
   12.3763    5.2513    9.0369 C   0  0  0  0  0  0  0  0  0  0  0  0
   12.5408    4.7377    7.8161 C   0  0  0  0  0  0  0  0  0  0  0  0
   11.2505    4.4172    7.3956 C   0  0  0  0  0  0  0  0  0  0  0  0
   10.6743    3.8690    6.2770 C   0  0  0  0  0  0  0  0  0  0  0  0
    9.3048    3.6874    6.1949 C   0  0  0  0  0  0  0  0  0  0  0  0
    8.4867    4.0558    7.2421 C   0  0  0  0  0  0  0  0  0  0  0  0
    9.0455    4.6089    8.3763 C   0  0  0  0  0  0  0  0  0  0  0  0
   10.4015    4.7838    8.4460 C   0  0  0  0  0  0  0  0  0  0  0  0
   11.1732    5.2879    9.4155 O   0  0  0  0  0  0  0  0  0  0  0  0
   13.4067    4.5599    7.1954 H   0  0  0  0  0  0  0  0  0  0  0  0
   11.3510    3.5875    5.4642 H   0  0  0  0  0  0  0  0  0  0  0  0
    8.9058    3.2455    5.2773 H   0  0  0  0  0  0  0  0  0  0  0  0
    7.4297    3.8964    7.1347 H   0  0  0  0  0  0  0  0  0  0  0  0
    8.3909    4.8917    9.1866 H   0  0  0  0  0  0  0  0  0  0  0  0
  1  3  2  0
  1  4  1  0
  1  5  1  0
  2  4  1  0
  2  6  1  0
  4  9  1  0
  4 15  1  0
  5  6  1  0
  5  8  1  0
  6  7  2  3
  9 10  2  0
  9 14  1  0
 10 11  1  0
 11 12  2  0
 12 13  1  0
 13 14  2  0
 15 16  2  0
 15 20  1  0
 16 17  1  0
 17 18  2  0
 18 19  1  0
 19 20  2  0
  2 21  1  0
  7 22  1  0
  8 23  1  0
  8 24  1  0
  8 25  1  0
 10 26  1  0
 11 27  1  0
 12 28  1  0
 13 29  1  0
 14 30  1  0
 16 31  1  0
 17 32  1  0
 19 33  1  0
 20 34  1  0
 35 36  2  0
 36 37  1  0
 37 38  2  0
 38 39  1  0
 39 40  2  0
 40 41  1  0
 41 42  2  0
 42 43  1  0
 43 35  1  0
 42 37  1  0
 36 44  1  0
 38 45  1  0
 39 46  1  0
 40 47  1  0
 41 48  1  0
 18 35  1  0
M  END
>  <attachment_point>  (154) 
32

>  <score>  (154) 
<NA>

$$$$
4djw
     RDKit          3D

 52 55  0  0  0  0  0  0  0  0999 V2000
   22.4950   11.8750   22.5810 C   0  0  0  0  0  0  0  0  0  0  0  0
   22.5380    9.4930   22.4640 N   0  0  0  0  0  0  0  0  0  0  0  0
   22.3600   13.0630   22.3480 O   0  0  0  0  0  0  0  0  0  0  0  0
   22.3390   10.6680   21.5610 C   0  0  0  0  0  0  0  0  0  0  0  0
   22.7860   11.3350   23.8120 N   0  0  0  0  0  0  0  0  0  0  0  0
   22.7800    9.9140   23.7010 C   0  0  0  0  0  0  0  0  0  0  0  0
   22.9970    9.1110   24.7490 N   0  0  0  0  0  0  0  0  0  0  0  0
   23.0220   12.1410   25.0180 C   0  0  0  0  0  0  0  0  0  0  0  0
   20.9020   10.6270   21.0050 C   0  0  0  0  0  0  0  0  0  0  0  0
   20.2720    9.4140   20.7470 C   0  0  0  0  0  0  0  0  0  0  0  0
   18.9690    9.3760   20.2600 C   0  0  0  0  0  0  0  0  0  0  0  0
   18.2800   10.5440   20.0210 C   0  0  0  0  0  0  0  0  0  0  0  0
   18.8920   11.7530   20.2590 C   0  0  0  0  0  0  0  0  0  0  0  0
   20.1950   11.7970   20.7440 C   0  0  0  0  0  0  0  0  0  0  0  0
   23.4880   10.6920   20.5300 C   0  0  0  0  0  0  0  0  0  0  0  0
   23.2110   10.7890   19.1730 C   0  0  0  0  0  0  0  0  0  0  0  0
   24.2350   10.8650   18.2430 C   0  0  0  0  0  0  0  0  0  0  0  0
   25.5500   10.8410   18.6560 C   0  0  0  0  0  0  0  0  0  0  0  0
   25.8710   10.7460   20.0070 C   0  0  0  0  0  0  0  0  0  0  0  0
   24.8260   10.6610   20.9430 C   0  0  0  0  0  0  0  0  0  0  0  0
    0.0000    0.0000    0.0000 H   0  0  0  0  0  0  0  0  0  0  0  0
    0.0000    0.0000    0.0000 H   0  0  0  0  0  0  0  0  0  0  0  0
    0.0000    0.0000    0.0000 H   0  0  0  0  0  0  0  0  0  0  0  0
    0.0000    0.0000    0.0000 H   0  0  0  0  0  0  0  0  0  0  0  0
    0.0000    0.0000    0.0000 H   0  0  0  0  0  0  0  0  0  0  0  0
    0.0000    0.0000    0.0000 H   0  0  0  0  0  0  0  0  0  0  0  0
    0.0000    0.0000    0.0000 H   0  0  0  0  0  0  0  0  0  0  0  0
    0.0000    0.0000    0.0000 H   0  0  0  0  0  0  0  0  0  0  0  0
    0.0000    0.0000    0.0000 H   0  0  0  0  0  0  0  0  0  0  0  0
    0.0000    0.0000    0.0000 H   0  0  0  0  0  0  0  0  0  0  0  0
    0.0000    0.0000    0.0000 H   0  0  0  0  0  0  0  0  0  0  0  0
    0.0000    0.0000    0.0000 H   0  0  0  0  0  0  0  0  0  0  0  0
    0.0000    0.0000    0.0000 H   0  0  0  0  0  0  0  0  0  0  0  0
    0.0000    0.0000    0.0000 H   0  0  0  0  0  0  0  0  0  0  0  0
   12.4628    5.2880    9.1000 C   0  0  0  0  0  0  0  0  0  0  0  0
   12.9052    4.8687    7.7400 C   0  0  0  0  0  0  0  0  0  0  0  0
   13.2935    3.5686    7.4871 C   0  0  0  0  0  0  0  0  0  0  0  0
   13.7106    3.1406    6.2380 C   0  0  0  0  0  0  0  0  0  0  0  0
   13.7512    4.0262    5.1803 C   0  0  0  0  0  0  0  0  0  0  0  0
   14.1631    3.6393    3.9106 O   0  0  0  0  0  0  0  0  0  0  0  0
   14.5482    2.2885    3.7217 C   0  0  0  0  0  0  0  0  0  0  0  0
   13.3644    5.3375    5.4157 C   0  0  0  0  0  0  0  0  0  0  0  0
   12.9483    5.7492    6.6772 C   0  0  0  0  0  0  0  0  0  0  0  0
   11.6636    6.0456    8.9550 H   0  0  0  0  0  0  0  0  0  0  0  0
   11.9903    4.4342    9.6502 H   0  0  0  0  0  0  0  0  0  0  0  0
   13.2539    2.8868    8.3352 H   0  0  0  0  0  0  0  0  0  0  0  0
   14.0041    2.1115    6.0935 H   0  0  0  0  0  0  0  0  0  0  0  0
   13.7886    1.5820    4.1082 H   0  0  0  0  0  0  0  0  0  0  0  0
   14.8726    2.0732    2.7035 H   0  0  0  0  0  0  0  0  0  0  0  0
   15.4563    2.1396    4.3760 H   0  0  0  0  0  0  0  0  0  0  0  0
   13.4032    6.0118    4.5789 H   0  0  0  0  0  0  0  0  0  0  0  0
   12.6506    6.7862    6.8309 H   0  0  0  0  0  0  0  0  0  0  0  0
  1  3  2  0
  1  4  1  0
  1  5  1  0
  2  4  1  0
  2  6  1  0
  4  9  1  0
  4 15  1  0
  5  6  1  0
  5  8  1  0
  6  7  2  3
  9 10  2  0
  9 14  1  0
 10 11  1  0
 11 12  2  0
 12 13  1  0
 13 14  2  0
 15 16  2  0
 15 20  1  0
 16 17  1  0
 17 18  2  0
 18 19  1  0
 19 20  2  0
  2 21  1  0
  7 22  1  0
  8 23  1  0
  8 24  1  0
  8 25  1  0
 10 26  1  0
 11 27  1  0
 12 28  1  0
 13 29  1  0
 14 30  1  0
 16 31  1  0
 17 32  1  0
 19 33  1  0
 20 34  1  0
 35 36  1  0
 36 37  2  0
 37 38  1  0
 38 39  2  0
 39 40  1  0
 40 41  1  0
 39 42  1  0
 42 43  2  0
 43 36  1  0
 35 44  1  0
 35 45  1  0
 37 46  1  0
 38 47  1  0
 41 48  1  0
 41 49  1  0
 41 50  1  0
 42 51  1  0
 43 52  1  0
 18 35  1  0
M  END
>  <attachment_point>  (155) 
32

>  <score>  (155) 
<NA>

$$$$
4djw
     RDKit          3D

 47 50  0  0  0  0  0  0  0  0999 V2000
   22.4950   11.8750   22.5810 C   0  0  0  0  0  0  0  0  0  0  0  0
   22.5380    9.4930   22.4640 N   0  0  0  0  0  0  0  0  0  0  0  0
   22.3600   13.0630   22.3480 O   0  0  0  0  0  0  0  0  0  0  0  0
   22.3390   10.6680   21.5610 C   0  0  0  0  0  0  0  0  0  0  0  0
   22.7860   11.3350   23.8120 N   0  0  0  0  0  0  0  0  0  0  0  0
   22.7800    9.9140   23.7010 C   0  0  0  0  0  0  0  0  0  0  0  0
   22.9970    9.1110   24.7490 N   0  0  0  0  0  0  0  0  0  0  0  0
   23.0220   12.1410   25.0180 C   0  0  0  0  0  0  0  0  0  0  0  0
   20.9020   10.6270   21.0050 C   0  0  0  0  0  0  0  0  0  0  0  0
   20.2720    9.4140   20.7470 C   0  0  0  0  0  0  0  0  0  0  0  0
   18.9690    9.3760   20.2600 C   0  0  0  0  0  0  0  0  0  0  0  0
   18.2800   10.5440   20.0210 C   0  0  0  0  0  0  0  0  0  0  0  0
   18.8920   11.7530   20.2590 C   0  0  0  0  0  0  0  0  0  0  0  0
   20.1950   11.7970   20.7440 C   0  0  0  0  0  0  0  0  0  0  0  0
   23.4880   10.6920   20.5300 C   0  0  0  0  0  0  0  0  0  0  0  0
   23.2110   10.7890   19.1730 C   0  0  0  0  0  0  0  0  0  0  0  0
   24.2350   10.8650   18.2430 C   0  0  0  0  0  0  0  0  0  0  0  0
   25.5500   10.8410   18.6560 C   0  0  0  0  0  0  0  0  0  0  0  0
   25.8710   10.7460   20.0070 C   0  0  0  0  0  0  0  0  0  0  0  0
   24.8260   10.6610   20.9430 C   0  0  0  0  0  0  0  0  0  0  0  0
    0.0000    0.0000    0.0000 H   0  0  0  0  0  0  0  0  0  0  0  0
    0.0000    0.0000    0.0000 H   0  0  0  0  0  0  0  0  0  0  0  0
    0.0000    0.0000    0.0000 H   0  0  0  0  0  0  0  0  0  0  0  0
    0.0000    0.0000    0.0000 H   0  0  0  0  0  0  0  0  0  0  0  0
    0.0000    0.0000    0.0000 H   0  0  0  0  0  0  0  0  0  0  0  0
    0.0000    0.0000    0.0000 H   0  0  0  0  0  0  0  0  0  0  0  0
    0.0000    0.0000    0.0000 H   0  0  0  0  0  0  0  0  0  0  0  0
    0.0000    0.0000    0.0000 H   0  0  0  0  0  0  0  0  0  0  0  0
    0.0000    0.0000    0.0000 H   0  0  0  0  0  0  0  0  0  0  0  0
    0.0000    0.0000    0.0000 H   0  0  0  0  0  0  0  0  0  0  0  0
    0.0000    0.0000    0.0000 H   0  0  0  0  0  0  0  0  0  0  0  0
    0.0000    0.0000    0.0000 H   0  0  0  0  0  0  0  0  0  0  0  0
    0.0000    0.0000    0.0000 H   0  0  0  0  0  0  0  0  0  0  0  0
    0.0000    0.0000    0.0000 H   0  0  0  0  0  0  0  0  0  0  0  0
   12.4716    5.2918    9.1065 C   0  0  0  0  0  0  0  0  0  0  0  0
   12.9682    4.8135    7.7856 C   0  0  0  0  0  0  0  0  0  0  0  0
   13.3477    3.5015    7.5763 C   0  0  0  0  0  0  0  0  0  0  0  0
   13.8088    3.0546    6.3521 C   0  0  0  0  0  0  0  0  0  0  0  0
   13.9083    3.9173    5.2773 C   0  0  0  0  0  0  0  0  0  0  0  0
   13.5207    5.2202    5.5225 C   0  0  0  0  0  0  0  0  0  0  0  0
   13.0741    5.6357    6.7224 N   0  0  0  0  0  0  0  0  0  0  0  0
   11.9361    4.4688    9.6576 H   0  0  0  0  0  0  0  0  0  0  0  0
   11.6637    6.0369    8.8704 H   0  0  0  0  0  0  0  0  0  0  0  0
   13.2624    2.8423    8.4295 H   0  0  0  0  0  0  0  0  0  0  0  0
   14.1033    2.0141    6.2087 H   0  0  0  0  0  0  0  0  0  0  0  0
   14.2679    3.5823    4.3115 H   0  0  0  0  0  0  0  0  0  0  0  0
   13.5946    5.9162    4.6775 H   0  0  0  0  0  0  0  0  0  0  0  0
  1  3  2  0
  1  4  1  0
  1  5  1  0
  2  4  1  0
  2  6  1  0
  4  9  1  0
  4 15  1  0
  5  6  1  0
  5  8  1  0
  6  7  2  3
  9 10  2  0
  9 14  1  0
 10 11  1  0
 11 12  2  0
 12 13  1  0
 13 14  2  0
 15 16  2  0
 15 20  1  0
 16 17  1  0
 17 18  2  0
 18 19  1  0
 19 20  2  0
  2 21  1  0
  7 22  1  0
  8 23  1  0
  8 24  1  0
  8 25  1  0
 10 26  1  0
 11 27  1  0
 12 28  1  0
 13 29  1  0
 14 30  1  0
 16 31  1  0
 17 32  1  0
 19 33  1  0
 20 34  1  0
 35 36  1  0
 36 37  2  0
 37 38  1  0
 38 39  2  0
 39 40  1  0
 40 41  2  0
 41 36  1  0
 35 42  1  0
 35 43  1  0
 37 44  1  0
 38 45  1  0
 39 46  1  0
 40 47  1  0
 18 35  1  0
M  END
>  <attachment_point>  (156) 
32

>  <score>  (156) 
<NA>

$$$$
4djw
     RDKit          3D

 39 41  0  0  0  0  0  0  0  0999 V2000
   22.4950   11.8750   22.5810 C   0  0  0  0  0  0  0  0  0  0  0  0
   22.5380    9.4930   22.4640 N   0  0  0  0  0  0  0  0  0  0  0  0
   22.3600   13.0630   22.3480 O   0  0  0  0  0  0  0  0  0  0  0  0
   22.3390   10.6680   21.5610 C   0  0  0  0  0  0  0  0  0  0  0  0
   22.7860   11.3350   23.8120 N   0  0  0  0  0  0  0  0  0  0  0  0
   22.7800    9.9140   23.7010 C   0  0  0  0  0  0  0  0  0  0  0  0
   22.9970    9.1110   24.7490 N   0  0  0  0  0  0  0  0  0  0  0  0
   23.0220   12.1410   25.0180 C   0  0  0  0  0  0  0  0  0  0  0  0
   20.9020   10.6270   21.0050 C   0  0  0  0  0  0  0  0  0  0  0  0
   20.2720    9.4140   20.7470 C   0  0  0  0  0  0  0  0  0  0  0  0
   18.9690    9.3760   20.2600 C   0  0  0  0  0  0  0  0  0  0  0  0
   18.2800   10.5440   20.0210 C   0  0  0  0  0  0  0  0  0  0  0  0
   18.8920   11.7530   20.2590 C   0  0  0  0  0  0  0  0  0  0  0  0
   20.1950   11.7970   20.7440 C   0  0  0  0  0  0  0  0  0  0  0  0
   23.4880   10.6920   20.5300 C   0  0  0  0  0  0  0  0  0  0  0  0
   23.2110   10.7890   19.1730 C   0  0  0  0  0  0  0  0  0  0  0  0
   24.2350   10.8650   18.2430 C   0  0  0  0  0  0  0  0  0  0  0  0
   25.5500   10.8410   18.6560 C   0  0  0  0  0  0  0  0  0  0  0  0
   25.8710   10.7460   20.0070 C   0  0  0  0  0  0  0  0  0  0  0  0
   24.8260   10.6610   20.9430 C   0  0  0  0  0  0  0  0  0  0  0  0
    0.0000    0.0000    0.0000 H   0  0  0  0  0  0  0  0  0  0  0  0
    0.0000    0.0000    0.0000 H   0  0  0  0  0  0  0  0  0  0  0  0
    0.0000    0.0000    0.0000 H   0  0  0  0  0  0  0  0  0  0  0  0
    0.0000    0.0000    0.0000 H   0  0  0  0  0  0  0  0  0  0  0  0
    0.0000    0.0000    0.0000 H   0  0  0  0  0  0  0  0  0  0  0  0
    0.0000    0.0000    0.0000 H   0  0  0  0  0  0  0  0  0  0  0  0
    0.0000    0.0000    0.0000 H   0  0  0  0  0  0  0  0  0  0  0  0
    0.0000    0.0000    0.0000 H   0  0  0  0  0  0  0  0  0  0  0  0
    0.0000    0.0000    0.0000 H   0  0  0  0  0  0  0  0  0  0  0  0
    0.0000    0.0000    0.0000 H   0  0  0  0  0  0  0  0  0  0  0  0
    0.0000    0.0000    0.0000 H   0  0  0  0  0  0  0  0  0  0  0  0
    0.0000    0.0000    0.0000 H   0  0  0  0  0  0  0  0  0  0  0  0
    0.0000    0.0000    0.0000 H   0  0  0  0  0  0  0  0  0  0  0  0
    0.0000    0.0000    0.0000 H   0  0  0  0  0  0  0  0  0  0  0  0
   12.4608    5.2872    9.0986 C   0  0  0  0  0  0  0  0  0  0  0  0
   12.9414    4.8320    7.7888 C   0  0  0  0  0  0  0  0  0  0  0  0
   13.3089    4.4866    6.7474 N   0  0  0  0  0  0  0  0  0  0  0  0
   12.0200    4.4121    9.6597 H   0  0  0  0  0  0  0  0  0  0  0  0
   11.6713    6.0407    8.9097 H   0  0  0  0  0  0  0  0  0  0  0  0
  1  3  2  0
  1  4  1  0
  1  5  1  0
  2  4  1  0
  2  6  1  0
  4  9  1  0
  4 15  1  0
  5  6  1  0
  5  8  1  0
  6  7  2  3
  9 10  2  0
  9 14  1  0
 10 11  1  0
 11 12  2  0
 12 13  1  0
 13 14  2  0
 15 16  2  0
 15 20  1  0
 16 17  1  0
 17 18  2  0
 18 19  1  0
 19 20  2  0
  2 21  1  0
  7 22  1  0
  8 23  1  0
  8 24  1  0
  8 25  1  0
 10 26  1  0
 11 27  1  0
 12 28  1  0
 13 29  1  0
 14 30  1  0
 16 31  1  0
 17 32  1  0
 19 33  1  0
 20 34  1  0
 35 36  1  0
 36 37  3  0
 35 38  1  0
 35 39  1  0
 18 35  1  0
M  END
>  <attachment_point>  (157) 
32

>  <score>  (157) 
<NA>

$$$$
4djw
     RDKit          3D

 45 48  0  0  0  0  0  0  0  0999 V2000
   22.4950   11.8750   22.5810 C   0  0  0  0  0  0  0  0  0  0  0  0
   22.5380    9.4930   22.4640 N   0  0  0  0  0  0  0  0  0  0  0  0
   22.3600   13.0630   22.3480 O   0  0  0  0  0  0  0  0  0  0  0  0
   22.3390   10.6680   21.5610 C   0  0  0  0  0  0  0  0  0  0  0  0
   22.7860   11.3350   23.8120 N   0  0  0  0  0  0  0  0  0  0  0  0
   22.7800    9.9140   23.7010 C   0  0  0  0  0  0  0  0  0  0  0  0
   22.9970    9.1110   24.7490 N   0  0  0  0  0  0  0  0  0  0  0  0
   23.0220   12.1410   25.0180 C   0  0  0  0  0  0  0  0  0  0  0  0
   20.9020   10.6270   21.0050 C   0  0  0  0  0  0  0  0  0  0  0  0
   20.2720    9.4140   20.7470 C   0  0  0  0  0  0  0  0  0  0  0  0
   18.9690    9.3760   20.2600 C   0  0  0  0  0  0  0  0  0  0  0  0
   18.2800   10.5440   20.0210 C   0  0  0  0  0  0  0  0  0  0  0  0
   18.8920   11.7530   20.2590 C   0  0  0  0  0  0  0  0  0  0  0  0
   20.1950   11.7970   20.7440 C   0  0  0  0  0  0  0  0  0  0  0  0
   23.4880   10.6920   20.5300 C   0  0  0  0  0  0  0  0  0  0  0  0
   23.2110   10.7890   19.1730 C   0  0  0  0  0  0  0  0  0  0  0  0
   24.2350   10.8650   18.2430 C   0  0  0  0  0  0  0  0  0  0  0  0
   25.5500   10.8410   18.6560 C   0  0  0  0  0  0  0  0  0  0  0  0
   25.8710   10.7460   20.0070 C   0  0  0  0  0  0  0  0  0  0  0  0
   24.8260   10.6610   20.9430 C   0  0  0  0  0  0  0  0  0  0  0  0
    0.0000    0.0000    0.0000 H   0  0  0  0  0  0  0  0  0  0  0  0
    0.0000    0.0000    0.0000 H   0  0  0  0  0  0  0  0  0  0  0  0
    0.0000    0.0000    0.0000 H   0  0  0  0  0  0  0  0  0  0  0  0
    0.0000    0.0000    0.0000 H   0  0  0  0  0  0  0  0  0  0  0  0
    0.0000    0.0000    0.0000 H   0  0  0  0  0  0  0  0  0  0  0  0
    0.0000    0.0000    0.0000 H   0  0  0  0  0  0  0  0  0  0  0  0
    0.0000    0.0000    0.0000 H   0  0  0  0  0  0  0  0  0  0  0  0
    0.0000    0.0000    0.0000 H   0  0  0  0  0  0  0  0  0  0  0  0
    0.0000    0.0000    0.0000 H   0  0  0  0  0  0  0  0  0  0  0  0
    0.0000    0.0000    0.0000 H   0  0  0  0  0  0  0  0  0  0  0  0
    0.0000    0.0000    0.0000 H   0  0  0  0  0  0  0  0  0  0  0  0
    0.0000    0.0000    0.0000 H   0  0  0  0  0  0  0  0  0  0  0  0
    0.0000    0.0000    0.0000 H   0  0  0  0  0  0  0  0  0  0  0  0
    0.0000    0.0000    0.0000 H   0  0  0  0  0  0  0  0  0  0  0  0
   12.4594    5.2866    9.0976 C   0  0  0  0  0  0  0  0  0  0  0  0
   12.3907    3.9434    8.7883 C   0  0  0  0  0  0  0  0  0  0  0  0
   11.3471    3.4571    8.0176 C   0  0  0  0  0  0  0  0  0  0  0  0
   10.3760    4.3304    7.5620 C   0  0  0  0  0  0  0  0  0  0  0  0
    9.0299    3.7556    6.5782 Cl  0  0  0  0  0  0  0  0  0  0  0  0
   10.4241    5.6668    7.8565 C   0  0  0  0  0  0  0  0  0  0  0  0
    9.2041    6.8008    7.2913 Cl  0  0  0  0  0  0  0  0  0  0  0  0
   11.4632    6.1404    8.6218 C   0  0  0  0  0  0  0  0  0  0  0  0
   13.1177    3.2138    9.1146 H   0  0  0  0  0  0  0  0  0  0  0  0
   11.2727    2.4083    7.7627 H   0  0  0  0  0  0  0  0  0  0  0  0
   11.4891    7.2149    8.8504 H   0  0  0  0  0  0  0  0  0  0  0  0
  1  3  2  0
  1  4  1  0
  1  5  1  0
  2  4  1  0
  2  6  1  0
  4  9  1  0
  4 15  1  0
  5  6  1  0
  5  8  1  0
  6  7  2  3
  9 10  2  0
  9 14  1  0
 10 11  1  0
 11 12  2  0
 12 13  1  0
 13 14  2  0
 15 16  2  0
 15 20  1  0
 16 17  1  0
 17 18  2  0
 18 19  1  0
 19 20  2  0
  2 21  1  0
  7 22  1  0
  8 23  1  0
  8 24  1  0
  8 25  1  0
 10 26  1  0
 11 27  1  0
 12 28  1  0
 13 29  1  0
 14 30  1  0
 16 31  1  0
 17 32  1  0
 19 33  1  0
 20 34  1  0
 35 36  2  0
 36 37  1  0
 37 38  2  0
 38 39  1  0
 38 40  1  0
 40 41  1  0
 40 42  2  0
 42 35  1  0
 36 43  1  0
 37 44  1  0
 42 45  1  0
 18 35  1  0
M  END
>  <attachment_point>  (158) 
32

>  <score>  (158) 
<NA>

$$$$
4djw
     RDKit          3D

 53 56  0  0  0  0  0  0  0  0999 V2000
   22.4950   11.8750   22.5810 C   0  0  0  0  0  0  0  0  0  0  0  0
   22.5380    9.4930   22.4640 N   0  0  0  0  0  0  0  0  0  0  0  0
   22.3600   13.0630   22.3480 O   0  0  0  0  0  0  0  0  0  0  0  0
   22.3390   10.6680   21.5610 C   0  0  0  0  0  0  0  0  0  0  0  0
   22.7860   11.3350   23.8120 N   0  0  0  0  0  0  0  0  0  0  0  0
   22.7800    9.9140   23.7010 C   0  0  0  0  0  0  0  0  0  0  0  0
   22.9970    9.1110   24.7490 N   0  0  0  0  0  0  0  0  0  0  0  0
   23.0220   12.1410   25.0180 C   0  0  0  0  0  0  0  0  0  0  0  0
   20.9020   10.6270   21.0050 C   0  0  0  0  0  0  0  0  0  0  0  0
   20.2720    9.4140   20.7470 C   0  0  0  0  0  0  0  0  0  0  0  0
   18.9690    9.3760   20.2600 C   0  0  0  0  0  0  0  0  0  0  0  0
   18.2800   10.5440   20.0210 C   0  0  0  0  0  0  0  0  0  0  0  0
   18.8920   11.7530   20.2590 C   0  0  0  0  0  0  0  0  0  0  0  0
   20.1950   11.7970   20.7440 C   0  0  0  0  0  0  0  0  0  0  0  0
   23.4880   10.6920   20.5300 C   0  0  0  0  0  0  0  0  0  0  0  0
   23.2110   10.7890   19.1730 C   0  0  0  0  0  0  0  0  0  0  0  0
   24.2350   10.8650   18.2430 C   0  0  0  0  0  0  0  0  0  0  0  0
   25.5500   10.8410   18.6560 C   0  0  0  0  0  0  0  0  0  0  0  0
   25.8710   10.7460   20.0070 C   0  0  0  0  0  0  0  0  0  0  0  0
   24.8260   10.6610   20.9430 C   0  0  0  0  0  0  0  0  0  0  0  0
    0.0000    0.0000    0.0000 H   0  0  0  0  0  0  0  0  0  0  0  0
    0.0000    0.0000    0.0000 H   0  0  0  0  0  0  0  0  0  0  0  0
    0.0000    0.0000    0.0000 H   0  0  0  0  0  0  0  0  0  0  0  0
    0.0000    0.0000    0.0000 H   0  0  0  0  0  0  0  0  0  0  0  0
    0.0000    0.0000    0.0000 H   0  0  0  0  0  0  0  0  0  0  0  0
    0.0000    0.0000    0.0000 H   0  0  0  0  0  0  0  0  0  0  0  0
    0.0000    0.0000    0.0000 H   0  0  0  0  0  0  0  0  0  0  0  0
    0.0000    0.0000    0.0000 H   0  0  0  0  0  0  0  0  0  0  0  0
    0.0000    0.0000    0.0000 H   0  0  0  0  0  0  0  0  0  0  0  0
    0.0000    0.0000    0.0000 H   0  0  0  0  0  0  0  0  0  0  0  0
    0.0000    0.0000    0.0000 H   0  0  0  0  0  0  0  0  0  0  0  0
    0.0000    0.0000    0.0000 H   0  0  0  0  0  0  0  0  0  0  0  0
    0.0000    0.0000    0.0000 H   0  0  0  0  0  0  0  0  0  0  0  0
    0.0000    0.0000    0.0000 H   0  0  0  0  0  0  0  0  0  0  0  0
   12.4259    5.2724    9.0731 C   0  0  0  0  0  0  0  0  0  0  0  0
   11.3549    6.0863    8.8508 C   0  0  0  0  0  0  0  0  0  0  0  0
   10.2866    5.6721    8.0880 C   0  0  0  0  0  0  0  0  0  0  0  0
   10.2977    4.4088    7.5363 C   0  0  0  0  0  0  0  0  0  0  0  0
    9.2208    3.9683    6.7572 N   0  0  0  0  0  0  0  0  0  0  0  0
    8.0953    4.8553    6.5376 C   0  0  0  0  0  0  0  0  0  0  0  0
    9.2599    2.6329    6.1890 C   0  0  0  0  0  0  0  0  0  0  0  0
   11.3990    3.5731    7.7653 C   0  0  0  0  0  0  0  0  0  0  0  0
   12.4478    4.0274    8.5354 C   0  0  0  0  0  0  0  0  0  0  0  0
   11.3703    7.0808    9.2983 H   0  0  0  0  0  0  0  0  0  0  0  0
    9.4362    6.3491    7.9251 H   0  0  0  0  0  0  0  0  0  0  0  0
    7.4167    4.4729    5.7653 H   0  0  0  0  0  0  0  0  0  0  0  0
    7.5908    5.0559    7.5089 H   0  0  0  0  0  0  0  0  0  0  0  0
    8.4901    5.8301    6.1623 H   0  0  0  0  0  0  0  0  0  0  0  0
    9.4993    1.8999    6.9809 H   0  0  0  0  0  0  0  0  0  0  0  0
    8.2667    2.3839    5.7381 H   0  0  0  0  0  0  0  0  0  0  0  0
    9.9876    2.5741    5.3495 H   0  0  0  0  0  0  0  0  0  0  0  0
   11.4063    2.5687    7.3259 H   0  0  0  0  0  0  0  0  0  0  0  0
   13.3196    3.3944    8.7293 H   0  0  0  0  0  0  0  0  0  0  0  0
  1  3  2  0
  1  4  1  0
  1  5  1  0
  2  4  1  0
  2  6  1  0
  4  9  1  0
  4 15  1  0
  5  6  1  0
  5  8  1  0
  6  7  2  3
  9 10  2  0
  9 14  1  0
 10 11  1  0
 11 12  2  0
 12 13  1  0
 13 14  2  0
 15 16  2  0
 15 20  1  0
 16 17  1  0
 17 18  2  0
 18 19  1  0
 19 20  2  0
  2 21  1  0
  7 22  1  0
  8 23  1  0
  8 24  1  0
  8 25  1  0
 10 26  1  0
 11 27  1  0
 12 28  1  0
 13 29  1  0
 14 30  1  0
 16 31  1  0
 17 32  1  0
 19 33  1  0
 20 34  1  0
 35 36  2  0
 36 37  1  0
 37 38  2  0
 38 39  1  0
 39 40  1  0
 39 41  1  0
 38 42  1  0
 42 43  2  0
 43 35  1  0
 36 44  1  0
 37 45  1  0
 40 46  1  0
 40 47  1  0
 40 48  1  0
 41 49  1  0
 41 50  1  0
 41 51  1  0
 42 52  1  0
 43 53  1  0
 18 35  1  0
M  END
>  <attachment_point>  (159) 
32

>  <score>  (159) 
<NA>

$$$$
4djw
     RDKit          3D

 48 51  0  0  0  0  0  0  0  0999 V2000
   22.4950   11.8750   22.5810 C   0  0  0  0  0  0  0  0  0  0  0  0
   22.5380    9.4930   22.4640 N   0  0  0  0  0  0  0  0  0  0  0  0
   22.3600   13.0630   22.3480 O   0  0  0  0  0  0  0  0  0  0  0  0
   22.3390   10.6680   21.5610 C   0  0  0  0  0  0  0  0  0  0  0  0
   22.7860   11.3350   23.8120 N   0  0  0  0  0  0  0  0  0  0  0  0
   22.7800    9.9140   23.7010 C   0  0  0  0  0  0  0  0  0  0  0  0
   22.9970    9.1110   24.7490 N   0  0  0  0  0  0  0  0  0  0  0  0
   23.0220   12.1410   25.0180 C   0  0  0  0  0  0  0  0  0  0  0  0
   20.9020   10.6270   21.0050 C   0  0  0  0  0  0  0  0  0  0  0  0
   20.2720    9.4140   20.7470 C   0  0  0  0  0  0  0  0  0  0  0  0
   18.9690    9.3760   20.2600 C   0  0  0  0  0  0  0  0  0  0  0  0
   18.2800   10.5440   20.0210 C   0  0  0  0  0  0  0  0  0  0  0  0
   18.8920   11.7530   20.2590 C   0  0  0  0  0  0  0  0  0  0  0  0
   20.1950   11.7970   20.7440 C   0  0  0  0  0  0  0  0  0  0  0  0
   23.4880   10.6920   20.5300 C   0  0  0  0  0  0  0  0  0  0  0  0
   23.2110   10.7890   19.1730 C   0  0  0  0  0  0  0  0  0  0  0  0
   24.2350   10.8650   18.2430 C   0  0  0  0  0  0  0  0  0  0  0  0
   25.5500   10.8410   18.6560 C   0  0  0  0  0  0  0  0  0  0  0  0
   25.8710   10.7460   20.0070 C   0  0  0  0  0  0  0  0  0  0  0  0
   24.8260   10.6610   20.9430 C   0  0  0  0  0  0  0  0  0  0  0  0
    0.0000    0.0000    0.0000 H   0  0  0  0  0  0  0  0  0  0  0  0
    0.0000    0.0000    0.0000 H   0  0  0  0  0  0  0  0  0  0  0  0
    0.0000    0.0000    0.0000 H   0  0  0  0  0  0  0  0  0  0  0  0
    0.0000    0.0000    0.0000 H   0  0  0  0  0  0  0  0  0  0  0  0
    0.0000    0.0000    0.0000 H   0  0  0  0  0  0  0  0  0  0  0  0
    0.0000    0.0000    0.0000 H   0  0  0  0  0  0  0  0  0  0  0  0
    0.0000    0.0000    0.0000 H   0  0  0  0  0  0  0  0  0  0  0  0
    0.0000    0.0000    0.0000 H   0  0  0  0  0  0  0  0  0  0  0  0
    0.0000    0.0000    0.0000 H   0  0  0  0  0  0  0  0  0  0  0  0
    0.0000    0.0000    0.0000 H   0  0  0  0  0  0  0  0  0  0  0  0
    0.0000    0.0000    0.0000 H   0  0  0  0  0  0  0  0  0  0  0  0
    0.0000    0.0000    0.0000 H   0  0  0  0  0  0  0  0  0  0  0  0
    0.0000    0.0000    0.0000 H   0  0  0  0  0  0  0  0  0  0  0  0
    0.0000    0.0000    0.0000 H   0  0  0  0  0  0  0  0  0  0  0  0
   12.4327    5.2752    9.0780 S   0  0  0  0  0  6  0  0  0  0  0  0
   11.4128    6.3760    8.9880 O   0  0  0  0  0  0  0  0  0  0  0  0
   11.8531    4.0903    9.7676 O   0  0  0  0  0  0  0  0  0  0  0  0
   13.0591    4.8933    7.4915 C   0  0  0  0  0  0  0  0  0  0  0  0
   13.1076    5.8342    6.4834 C   0  0  0  0  0  0  0  0  0  0  0  0
   13.6050    5.5286    5.2257 C   0  0  0  0  0  0  0  0  0  0  0  0
   14.0685    4.2588    4.9525 C   0  0  0  0  0  0  0  0  0  0  0  0
   14.0324    3.2948    5.9431 C   0  0  0  0  0  0  0  0  0  0  0  0
   13.5338    3.6205    7.1864 C   0  0  0  0  0  0  0  0  0  0  0  0
   12.7450    6.8365    6.6890 H   0  0  0  0  0  0  0  0  0  0  0  0
   13.6192    6.3085    4.4706 H   0  0  0  0  0  0  0  0  0  0  0  0
   14.4627    3.9963    3.9743 H   0  0  0  0  0  0  0  0  0  0  0  0
   14.3875    2.2846    5.7682 H   0  0  0  0  0  0  0  0  0  0  0  0
   13.5118    2.8522    7.9549 H   0  0  0  0  0  0  0  0  0  0  0  0
  1  3  2  0
  1  4  1  0
  1  5  1  0
  2  4  1  0
  2  6  1  0
  4  9  1  0
  4 15  1  0
  5  6  1  0
  5  8  1  0
  6  7  2  3
  9 10  2  0
  9 14  1  0
 10 11  1  0
 11 12  2  0
 12 13  1  0
 13 14  2  0
 15 16  2  0
 15 20  1  0
 16 17  1  0
 17 18  2  0
 18 19  1  0
 19 20  2  0
  2 21  1  0
  7 22  1  0
  8 23  1  0
  8 24  1  0
  8 25  1  0
 10 26  1  0
 11 27  1  0
 12 28  1  0
 13 29  1  0
 14 30  1  0
 16 31  1  0
 17 32  1  0
 19 33  1  0
 20 34  1  0
 35 36  2  0
 35 37  2  0
 35 38  1  0
 38 39  2  0
 39 40  1  0
 40 41  2  0
 41 42  1  0
 42 43  2  0
 43 38  1  0
 39 44  1  0
 40 45  1  0
 41 46  1  0
 42 47  1  0
 43 48  1  0
 18 35  1  0
M  END
>  <attachment_point>  (160) 
32

>  <score>  (160) 
<NA>

$$$$
4djw
     RDKit          3D

 45 47  0  0  0  0  0  0  0  0999 V2000
   22.4950   11.8750   22.5810 C   0  0  0  0  0  0  0  0  0  0  0  0
   22.5380    9.4930   22.4640 N   0  0  0  0  0  0  0  0  0  0  0  0
   22.3600   13.0630   22.3480 O   0  0  0  0  0  0  0  0  0  0  0  0
   22.3390   10.6680   21.5610 C   0  0  0  0  0  0  0  0  0  0  0  0
   22.7860   11.3350   23.8120 N   0  0  0  0  0  0  0  0  0  0  0  0
   22.7800    9.9140   23.7010 C   0  0  0  0  0  0  0  0  0  0  0  0
   22.9970    9.1110   24.7490 N   0  0  0  0  0  0  0  0  0  0  0  0
   23.0220   12.1410   25.0180 C   0  0  0  0  0  0  0  0  0  0  0  0
   20.9020   10.6270   21.0050 C   0  0  0  0  0  0  0  0  0  0  0  0
   20.2720    9.4140   20.7470 C   0  0  0  0  0  0  0  0  0  0  0  0
   18.9690    9.3760   20.2600 C   0  0  0  0  0  0  0  0  0  0  0  0
   18.2800   10.5440   20.0210 C   0  0  0  0  0  0  0  0  0  0  0  0
   18.8920   11.7530   20.2590 C   0  0  0  0  0  0  0  0  0  0  0  0
   20.1950   11.7970   20.7440 C   0  0  0  0  0  0  0  0  0  0  0  0
   23.4880   10.6920   20.5300 C   0  0  0  0  0  0  0  0  0  0  0  0
   23.2110   10.7890   19.1730 C   0  0  0  0  0  0  0  0  0  0  0  0
   24.2350   10.8650   18.2430 C   0  0  0  0  0  0  0  0  0  0  0  0
   25.5500   10.8410   18.6560 C   0  0  0  0  0  0  0  0  0  0  0  0
   25.8710   10.7460   20.0070 C   0  0  0  0  0  0  0  0  0  0  0  0
   24.8260   10.6610   20.9430 C   0  0  0  0  0  0  0  0  0  0  0  0
    0.0000    0.0000    0.0000 H   0  0  0  0  0  0  0  0  0  0  0  0
    0.0000    0.0000    0.0000 H   0  0  0  0  0  0  0  0  0  0  0  0
    0.0000    0.0000    0.0000 H   0  0  0  0  0  0  0  0  0  0  0  0
    0.0000    0.0000    0.0000 H   0  0  0  0  0  0  0  0  0  0  0  0
    0.0000    0.0000    0.0000 H   0  0  0  0  0  0  0  0  0  0  0  0
    0.0000    0.0000    0.0000 H   0  0  0  0  0  0  0  0  0  0  0  0
    0.0000    0.0000    0.0000 H   0  0  0  0  0  0  0  0  0  0  0  0
    0.0000    0.0000    0.0000 H   0  0  0  0  0  0  0  0  0  0  0  0
    0.0000    0.0000    0.0000 H   0  0  0  0  0  0  0  0  0  0  0  0
    0.0000    0.0000    0.0000 H   0  0  0  0  0  0  0  0  0  0  0  0
    0.0000    0.0000    0.0000 H   0  0  0  0  0  0  0  0  0  0  0  0
    0.0000    0.0000    0.0000 H   0  0  0  0  0  0  0  0  0  0  0  0
    0.0000    0.0000    0.0000 H   0  0  0  0  0  0  0  0  0  0  0  0
    0.0000    0.0000    0.0000 H   0  0  0  0  0  0  0  0  0  0  0  0
   12.4578    5.2859    9.0964 C   0  0  0  0  0  0  0  0  0  0  0  0
   12.5723    3.8363    8.9777 N   0  0  0  0  0  0  0  0  0  0  0  0
   11.6225    3.0948    8.2384 C   0  0  0  0  0  0  0  0  0  0  0  0
   11.7643    1.6283    8.1358 C   0  0  0  0  0  0  0  0  0  0  0  0
   10.6703    3.6736    7.6758 O   0  0  0  0  0  0  0  0  0  0  0  0
   12.5890    5.7487    8.0873 H   0  0  0  0  0  0  0  0  0  0  0  0
   11.4789    5.5359    9.5512 H   0  0  0  0  0  0  0  0  0  0  0  0
   13.3711    3.3135    9.4446 H   0  0  0  0  0  0  0  0  0  0  0  0
   12.6322    1.2390    8.6861 H   0  0  0  0  0  0  0  0  0  0  0  0
   11.9117    1.3636    7.0663 H   0  0  0  0  0  0  0  0  0  0  0  0
   10.8527    1.1069    8.5044 H   0  0  0  0  0  0  0  0  0  0  0  0
  1  3  2  0
  1  4  1  0
  1  5  1  0
  2  4  1  0
  2  6  1  0
  4  9  1  0
  4 15  1  0
  5  6  1  0
  5  8  1  0
  6  7  2  3
  9 10  2  0
  9 14  1  0
 10 11  1  0
 11 12  2  0
 12 13  1  0
 13 14  2  0
 15 16  2  0
 15 20  1  0
 16 17  1  0
 17 18  2  0
 18 19  1  0
 19 20  2  0
  2 21  1  0
  7 22  1  0
  8 23  1  0
  8 24  1  0
  8 25  1  0
 10 26  1  0
 11 27  1  0
 12 28  1  0
 13 29  1  0
 14 30  1  0
 16 31  1  0
 17 32  1  0
 19 33  1  0
 20 34  1  0
 35 36  1  0
 36 37  1  0
 37 38  1  0
 37 39  2  0
 35 40  1  0
 35 41  1  0
 36 42  1  0
 38 43  1  0
 38 44  1  0
 38 45  1  0
 18 35  1  0
M  END
>  <attachment_point>  (161) 
32

>  <score>  (161) 
<NA>

$$$$
4djw
     RDKit          3D

 36 38  0  0  0  0  0  0  0  0999 V2000
   22.4950   11.8750   22.5810 C   0  0  0  0  0  0  0  0  0  0  0  0
   22.5380    9.4930   22.4640 N   0  0  0  0  0  0  0  0  0  0  0  0
   22.3600   13.0630   22.3480 O   0  0  0  0  0  0  0  0  0  0  0  0
   22.3390   10.6680   21.5610 C   0  0  0  0  0  0  0  0  0  0  0  0
   22.7860   11.3350   23.8120 N   0  0  0  0  0  0  0  0  0  0  0  0
   22.7800    9.9140   23.7010 C   0  0  0  0  0  0  0  0  0  0  0  0
   22.9970    9.1110   24.7490 N   0  0  0  0  0  0  0  0  0  0  0  0
   23.0220   12.1410   25.0180 C   0  0  0  0  0  0  0  0  0  0  0  0
   20.9020   10.6270   21.0050 C   0  0  0  0  0  0  0  0  0  0  0  0
   20.2720    9.4140   20.7470 C   0  0  0  0  0  0  0  0  0  0  0  0
   18.9690    9.3760   20.2600 C   0  0  0  0  0  0  0  0  0  0  0  0
   18.2800   10.5440   20.0210 C   0  0  0  0  0  0  0  0  0  0  0  0
   18.8920   11.7530   20.2590 C   0  0  0  0  0  0  0  0  0  0  0  0
   20.1950   11.7970   20.7440 C   0  0  0  0  0  0  0  0  0  0  0  0
   23.4880   10.6920   20.5300 C   0  0  0  0  0  0  0  0  0  0  0  0
   23.2110   10.7890   19.1730 C   0  0  0  0  0  0  0  0  0  0  0  0
   24.2350   10.8650   18.2430 C   0  0  0  0  0  0  0  0  0  0  0  0
   25.5500   10.8410   18.6560 C   0  0  0  0  0  0  0  0  0  0  0  0
   25.8710   10.7460   20.0070 C   0  0  0  0  0  0  0  0  0  0  0  0
   24.8260   10.6610   20.9430 C   0  0  0  0  0  0  0  0  0  0  0  0
    0.0000    0.0000    0.0000 H   0  0  0  0  0  0  0  0  0  0  0  0
    0.0000    0.0000    0.0000 H   0  0  0  0  0  0  0  0  0  0  0  0
    0.0000    0.0000    0.0000 H   0  0  0  0  0  0  0  0  0  0  0  0
    0.0000    0.0000    0.0000 H   0  0  0  0  0  0  0  0  0  0  0  0
    0.0000    0.0000    0.0000 H   0  0  0  0  0  0  0  0  0  0  0  0
    0.0000    0.0000    0.0000 H   0  0  0  0  0  0  0  0  0  0  0  0
    0.0000    0.0000    0.0000 H   0  0  0  0  0  0  0  0  0  0  0  0
    0.0000    0.0000    0.0000 H   0  0  0  0  0  0  0  0  0  0  0  0
    0.0000    0.0000    0.0000 H   0  0  0  0  0  0  0  0  0  0  0  0
    0.0000    0.0000    0.0000 H   0  0  0  0  0  0  0  0  0  0  0  0
    0.0000    0.0000    0.0000 H   0  0  0  0  0  0  0  0  0  0  0  0
    0.0000    0.0000    0.0000 H   0  0  0  0  0  0  0  0  0  0  0  0
    0.0000    0.0000    0.0000 H   0  0  0  0  0  0  0  0  0  0  0  0
    0.0000    0.0000    0.0000 H   0  0  0  0  0  0  0  0  0  0  0  0
   12.5382    5.3200    9.1551 S   0  0  0  0  0  0  0  0  0  0  0  0
   11.7076    5.9150    8.1849 H   0  0  0  0  0  0  0  0  0  0  0  0
  1  3  2  0
  1  4  1  0
  1  5  1  0
  2  4  1  0
  2  6  1  0
  4  9  1  0
  4 15  1  0
  5  6  1  0
  5  8  1  0
  6  7  2  3
  9 10  2  0
  9 14  1  0
 10 11  1  0
 11 12  2  0
 12 13  1  0
 13 14  2  0
 15 16  2  0
 15 20  1  0
 16 17  1  0
 17 18  2  0
 18 19  1  0
 19 20  2  0
  2 21  1  0
  7 22  1  0
  8 23  1  0
  8 24  1  0
  8 25  1  0
 10 26  1  0
 11 27  1  0
 12 28  1  0
 13 29  1  0
 14 30  1  0
 16 31  1  0
 17 32  1  0
 19 33  1  0
 20 34  1  0
 35 36  1  0
 18 35  1  0
M  END
>  <attachment_point>  (162) 
32

>  <score>  (162) 
<NA>

$$$$
4djw
     RDKit          3D

 53 56  0  0  0  0  0  0  0  0999 V2000
   22.4950   11.8750   22.5810 C   0  0  0  0  0  0  0  0  0  0  0  0
   22.5380    9.4930   22.4640 N   0  0  0  0  0  0  0  0  0  0  0  0
   22.3600   13.0630   22.3480 O   0  0  0  0  0  0  0  0  0  0  0  0
   22.3390   10.6680   21.5610 C   0  0  0  0  0  0  0  0  0  0  0  0
   22.7860   11.3350   23.8120 N   0  0  0  0  0  0  0  0  0  0  0  0
   22.7800    9.9140   23.7010 C   0  0  0  0  0  0  0  0  0  0  0  0
   22.9970    9.1110   24.7490 N   0  0  0  0  0  0  0  0  0  0  0  0
   23.0220   12.1410   25.0180 C   0  0  0  0  0  0  0  0  0  0  0  0
   20.9020   10.6270   21.0050 C   0  0  0  0  0  0  0  0  0  0  0  0
   20.2720    9.4140   20.7470 C   0  0  0  0  0  0  0  0  0  0  0  0
   18.9690    9.3760   20.2600 C   0  0  0  0  0  0  0  0  0  0  0  0
   18.2800   10.5440   20.0210 C   0  0  0  0  0  0  0  0  0  0  0  0
   18.8920   11.7530   20.2590 C   0  0  0  0  0  0  0  0  0  0  0  0
   20.1950   11.7970   20.7440 C   0  0  0  0  0  0  0  0  0  0  0  0
   23.4880   10.6920   20.5300 C   0  0  0  0  0  0  0  0  0  0  0  0
   23.2110   10.7890   19.1730 C   0  0  0  0  0  0  0  0  0  0  0  0
   24.2350   10.8650   18.2430 C   0  0  0  0  0  0  0  0  0  0  0  0
   25.5500   10.8410   18.6560 C   0  0  0  0  0  0  0  0  0  0  0  0
   25.8710   10.7460   20.0070 C   0  0  0  0  0  0  0  0  0  0  0  0
   24.8260   10.6610   20.9430 C   0  0  0  0  0  0  0  0  0  0  0  0
    0.0000    0.0000    0.0000 H   0  0  0  0  0  0  0  0  0  0  0  0
    0.0000    0.0000    0.0000 H   0  0  0  0  0  0  0  0  0  0  0  0
    0.0000    0.0000    0.0000 H   0  0  0  0  0  0  0  0  0  0  0  0
    0.0000    0.0000    0.0000 H   0  0  0  0  0  0  0  0  0  0  0  0
    0.0000    0.0000    0.0000 H   0  0  0  0  0  0  0  0  0  0  0  0
    0.0000    0.0000    0.0000 H   0  0  0  0  0  0  0  0  0  0  0  0
    0.0000    0.0000    0.0000 H   0  0  0  0  0  0  0  0  0  0  0  0
    0.0000    0.0000    0.0000 H   0  0  0  0  0  0  0  0  0  0  0  0
    0.0000    0.0000    0.0000 H   0  0  0  0  0  0  0  0  0  0  0  0
    0.0000    0.0000    0.0000 H   0  0  0  0  0  0  0  0  0  0  0  0
    0.0000    0.0000    0.0000 H   0  0  0  0  0  0  0  0  0  0  0  0
    0.0000    0.0000    0.0000 H   0  0  0  0  0  0  0  0  0  0  0  0
    0.0000    0.0000    0.0000 H   0  0  0  0  0  0  0  0  0  0  0  0
    0.0000    0.0000    0.0000 H   0  0  0  0  0  0  0  0  0  0  0  0
   12.5319    5.3174    9.1505 N   0  0  0  0  0  0  0  0  0  0  0  0
   11.2801    5.9911    8.8794 C   0  0  0  0  0  0  0  0  0  0  0  0
   11.4865    7.3187    8.1888 C   0  0  0  0  0  0  0  0  0  0  0  0
   12.2923    8.2568    8.9745 C   0  0  0  0  0  0  0  0  0  0  0  0
   11.7029    9.1380    9.8724 C   0  0  0  0  0  0  0  0  0  0  0  0
   12.5062   10.0041   10.5908 C   0  0  0  0  0  0  0  0  0  0  0  0
   13.8807   10.0301   10.4518 C   0  0  0  0  0  0  0  0  0  0  0  0
   14.4270    9.1384    9.5490 C   0  0  0  0  0  0  0  0  0  0  0  0
   13.6731    8.2648    8.8178 C   0  0  0  0  0  0  0  0  0  0  0  0
   12.2962    4.2800    9.1922 H   0  0  0  0  0  0  0  0  0  0  0  0
   10.7536    6.1325    9.8395 H   0  0  0  0  0  0  0  0  0  0  0  0
   10.6472    5.3325    8.2514 H   0  0  0  0  0  0  0  0  0  0  0  0
   10.4889    7.7362    7.9604 H   0  0  0  0  0  0  0  0  0  0  0  0
   12.0175    7.1292    7.2301 H   0  0  0  0  0  0  0  0  0  0  0  0
   10.6217    9.1175    9.9818 H   0  0  0  0  0  0  0  0  0  0  0  0
   12.0228   10.6898   11.2925 H   0  0  0  0  0  0  0  0  0  0  0  0
   14.5011   10.7253   11.0312 H   0  0  0  0  0  0  0  0  0  0  0  0
   15.5164    9.1542    9.4344 H   0  0  0  0  0  0  0  0  0  0  0  0
   14.1393    7.5664    8.1063 H   0  0  0  0  0  0  0  0  0  0  0  0
  1  3  2  0
  1  4  1  0
  1  5  1  0
  2  4  1  0
  2  6  1  0
  4  9  1  0
  4 15  1  0
  5  6  1  0
  5  8  1  0
  6  7  2  3
  9 10  2  0
  9 14  1  0
 10 11  1  0
 11 12  2  0
 12 13  1  0
 13 14  2  0
 15 16  2  0
 15 20  1  0
 16 17  1  0
 17 18  2  0
 18 19  1  0
 19 20  2  0
  2 21  1  0
  7 22  1  0
  8 23  1  0
  8 24  1  0
  8 25  1  0
 10 26  1  0
 11 27  1  0
 12 28  1  0
 13 29  1  0
 14 30  1  0
 16 31  1  0
 17 32  1  0
 19 33  1  0
 20 34  1  0
 35 36  1  0
 36 37  1  0
 37 38  1  0
 38 39  2  0
 39 40  1  0
 40 41  2  0
 41 42  1  0
 42 43  2  0
 43 38  1  0
 35 44  1  0
 36 45  1  0
 36 46  1  0
 37 47  1  0
 37 48  1  0
 39 49  1  0
 40 50  1  0
 41 51  1  0
 42 52  1  0
 43 53  1  0
 18 35  1  0
M  END
>  <attachment_point>  (163) 
32

>  <score>  (163) 
<NA>

$$$$
4djw
     RDKit          3D

 54 57  0  0  0  0  0  0  0  0999 V2000
   22.4950   11.8750   22.5810 C   0  0  0  0  0  0  0  0  0  0  0  0
   22.5380    9.4930   22.4640 N   0  0  0  0  0  0  0  0  0  0  0  0
   22.3600   13.0630   22.3480 O   0  0  0  0  0  0  0  0  0  0  0  0
   22.3390   10.6680   21.5610 C   0  0  0  0  0  0  0  0  0  0  0  0
   22.7860   11.3350   23.8120 N   0  0  0  0  0  0  0  0  0  0  0  0
   22.7800    9.9140   23.7010 C   0  0  0  0  0  0  0  0  0  0  0  0
   22.9970    9.1110   24.7490 N   0  0  0  0  0  0  0  0  0  0  0  0
   23.0220   12.1410   25.0180 C   0  0  0  0  0  0  0  0  0  0  0  0
   20.9020   10.6270   21.0050 C   0  0  0  0  0  0  0  0  0  0  0  0
   20.2720    9.4140   20.7470 C   0  0  0  0  0  0  0  0  0  0  0  0
   18.9690    9.3760   20.2600 C   0  0  0  0  0  0  0  0  0  0  0  0
   18.2800   10.5440   20.0210 C   0  0  0  0  0  0  0  0  0  0  0  0
   18.8920   11.7530   20.2590 C   0  0  0  0  0  0  0  0  0  0  0  0
   20.1950   11.7970   20.7440 C   0  0  0  0  0  0  0  0  0  0  0  0
   23.4880   10.6920   20.5300 C   0  0  0  0  0  0  0  0  0  0  0  0
   23.2110   10.7890   19.1730 C   0  0  0  0  0  0  0  0  0  0  0  0
   24.2350   10.8650   18.2430 C   0  0  0  0  0  0  0  0  0  0  0  0
   25.5500   10.8410   18.6560 C   0  0  0  0  0  0  0  0  0  0  0  0
   25.8710   10.7460   20.0070 C   0  0  0  0  0  0  0  0  0  0  0  0
   24.8260   10.6610   20.9430 C   0  0  0  0  0  0  0  0  0  0  0  0
    0.0000    0.0000    0.0000 H   0  0  0  0  0  0  0  0  0  0  0  0
    0.0000    0.0000    0.0000 H   0  0  0  0  0  0  0  0  0  0  0  0
    0.0000    0.0000    0.0000 H   0  0  0  0  0  0  0  0  0  0  0  0
    0.0000    0.0000    0.0000 H   0  0  0  0  0  0  0  0  0  0  0  0
    0.0000    0.0000    0.0000 H   0  0  0  0  0  0  0  0  0  0  0  0
    0.0000    0.0000    0.0000 H   0  0  0  0  0  0  0  0  0  0  0  0
    0.0000    0.0000    0.0000 H   0  0  0  0  0  0  0  0  0  0  0  0
    0.0000    0.0000    0.0000 H   0  0  0  0  0  0  0  0  0  0  0  0
    0.0000    0.0000    0.0000 H   0  0  0  0  0  0  0  0  0  0  0  0
    0.0000    0.0000    0.0000 H   0  0  0  0  0  0  0  0  0  0  0  0
    0.0000    0.0000    0.0000 H   0  0  0  0  0  0  0  0  0  0  0  0
    0.0000    0.0000    0.0000 H   0  0  0  0  0  0  0  0  0  0  0  0
    0.0000    0.0000    0.0000 H   0  0  0  0  0  0  0  0  0  0  0  0
    0.0000    0.0000    0.0000 H   0  0  0  0  0  0  0  0  0  0  0  0
   12.4350    5.2763    9.0798 O   0  0  0  0  0  0  0  0  0  0  0  0
   13.2237    4.6629    8.0779 C   0  0  0  0  0  0  0  0  0  0  0  0
   12.3050    4.0468    7.0306 C   0  0  0  0  0  0  0  0  0  0  0  0
   13.1354    3.4377    6.0373 N   0  0  0  0  0  0  0  0  0  0  0  0
   12.4316    2.8064    4.9698 C   0  0  0  0  0  0  0  0  0  0  0  0
   12.8167    3.5263    3.6989 C   0  0  0  0  0  0  0  0  0  0  0  0
   14.2296    3.9625    4.0438 C   0  0  0  0  0  0  0  0  0  0  0  0
   14.0055    4.4388    5.4820 C   0  0  0  0  0  0  0  0  0  0  0  0
   13.8253    3.8924    8.6021 H   0  0  0  0  0  0  0  0  0  0  0  0
   13.8993    5.3958    7.6484 H   0  0  0  0  0  0  0  0  0  0  0  0
   11.7867    4.9270    6.5486 H   0  0  0  0  0  0  0  0  0  0  0  0
   11.5499    3.3950    7.4756 H   0  0  0  0  0  0  0  0  0  0  0  0
   11.3397    2.7476    5.1161 H   0  0  0  0  0  0  0  0  0  0  0  0
   12.8431    1.7627    4.8738 H   0  0  0  0  0  0  0  0  0  0  0  0
   12.8206    2.8573    2.8184 H   0  0  0  0  0  0  0  0  0  0  0  0
   12.2201    4.4447    3.5464 H   0  0  0  0  0  0  0  0  0  0  0  0
   14.5861    4.7836    3.4104 H   0  0  0  0  0  0  0  0  0  0  0  0
   14.9214    3.1075    4.1087 H   0  0  0  0  0  0  0  0  0  0  0  0
   14.9357    4.5535    6.0361 H   0  0  0  0  0  0  0  0  0  0  0  0
   13.4568    5.4176    5.4358 H   0  0  0  0  0  0  0  0  0  0  0  0
  1  3  2  0
  1  4  1  0
  1  5  1  0
  2  4  1  0
  2  6  1  0
  4  9  1  0
  4 15  1  0
  5  6  1  0
  5  8  1  0
  6  7  2  3
  9 10  2  0
  9 14  1  0
 10 11  1  0
 11 12  2  0
 12 13  1  0
 13 14  2  0
 15 16  2  0
 15 20  1  0
 16 17  1  0
 17 18  2  0
 18 19  1  0
 19 20  2  0
  2 21  1  0
  7 22  1  0
  8 23  1  0
  8 24  1  0
  8 25  1  0
 10 26  1  0
 11 27  1  0
 12 28  1  0
 13 29  1  0
 14 30  1  0
 16 31  1  0
 17 32  1  0
 19 33  1  0
 20 34  1  0
 35 36  1  0
 36 37  1  0
 37 38  1  0
 38 39  1  0
 39 40  1  0
 40 41  1  0
 41 42  1  0
 42 38  1  0
 36 43  1  0
 36 44  1  0
 37 45  1  0
 37 46  1  0
 39 47  1  0
 39 48  1  0
 40 49  1  0
 40 50  1  0
 41 51  1  0
 41 52  1  0
 42 53  1  0
 42 54  1  0
 18 35  1  0
M  END
>  <attachment_point>  (164) 
32

>  <score>  (164) 
<NA>

$$$$
4djw
     RDKit          3D

 45 47  0  0  0  0  0  0  0  0999 V2000
   22.4950   11.8750   22.5810 C   0  0  0  0  0  0  0  0  0  0  0  0
   22.5380    9.4930   22.4640 N   0  0  0  0  0  0  0  0  0  0  0  0
   22.3600   13.0630   22.3480 O   0  0  0  0  0  0  0  0  0  0  0  0
   22.3390   10.6680   21.5610 C   0  0  0  0  0  0  0  0  0  0  0  0
   22.7860   11.3350   23.8120 N   0  0  0  0  0  0  0  0  0  0  0  0
   22.7800    9.9140   23.7010 C   0  0  0  0  0  0  0  0  0  0  0  0
   22.9970    9.1110   24.7490 N   0  0  0  0  0  0  0  0  0  0  0  0
   23.0220   12.1410   25.0180 C   0  0  0  0  0  0  0  0  0  0  0  0
   20.9020   10.6270   21.0050 C   0  0  0  0  0  0  0  0  0  0  0  0
   20.2720    9.4140   20.7470 C   0  0  0  0  0  0  0  0  0  0  0  0
   18.9690    9.3760   20.2600 C   0  0  0  0  0  0  0  0  0  0  0  0
   18.2800   10.5440   20.0210 C   0  0  0  0  0  0  0  0  0  0  0  0
   18.8920   11.7530   20.2590 C   0  0  0  0  0  0  0  0  0  0  0  0
   20.1950   11.7970   20.7440 C   0  0  0  0  0  0  0  0  0  0  0  0
   23.4880   10.6920   20.5300 C   0  0  0  0  0  0  0  0  0  0  0  0
   23.2110   10.7890   19.1730 C   0  0  0  0  0  0  0  0  0  0  0  0
   24.2350   10.8650   18.2430 C   0  0  0  0  0  0  0  0  0  0  0  0
   25.5500   10.8410   18.6560 C   0  0  0  0  0  0  0  0  0  0  0  0
   25.8710   10.7460   20.0070 C   0  0  0  0  0  0  0  0  0  0  0  0
   24.8260   10.6610   20.9430 C   0  0  0  0  0  0  0  0  0  0  0  0
    0.0000    0.0000    0.0000 H   0  0  0  0  0  0  0  0  0  0  0  0
    0.0000    0.0000    0.0000 H   0  0  0  0  0  0  0  0  0  0  0  0
    0.0000    0.0000    0.0000 H   0  0  0  0  0  0  0  0  0  0  0  0
    0.0000    0.0000    0.0000 H   0  0  0  0  0  0  0  0  0  0  0  0
    0.0000    0.0000    0.0000 H   0  0  0  0  0  0  0  0  0  0  0  0
    0.0000    0.0000    0.0000 H   0  0  0  0  0  0  0  0  0  0  0  0
    0.0000    0.0000    0.0000 H   0  0  0  0  0  0  0  0  0  0  0  0
    0.0000    0.0000    0.0000 H   0  0  0  0  0  0  0  0  0  0  0  0
    0.0000    0.0000    0.0000 H   0  0  0  0  0  0  0  0  0  0  0  0
    0.0000    0.0000    0.0000 H   0  0  0  0  0  0  0  0  0  0  0  0
    0.0000    0.0000    0.0000 H   0  0  0  0  0  0  0  0  0  0  0  0
    0.0000    0.0000    0.0000 H   0  0  0  0  0  0  0  0  0  0  0  0
    0.0000    0.0000    0.0000 H   0  0  0  0  0  0  0  0  0  0  0  0
    0.0000    0.0000    0.0000 H   0  0  0  0  0  0  0  0  0  0  0  0
   12.4141    5.2674    9.0645 C   0  0  0  0  0  0  0  0  0  0  0  0
   12.8241    3.8646    8.6909 C   0  0  0  0  0  0  0  0  0  0  0  0
   11.9097    3.2147    7.9107 O   0  0  0  0  0  0  0  0  0  0  0  0
   11.6759    3.8691    6.7066 C   0  0  0  0  0  0  0  0  0  0  0  0
   12.4126    5.9711    8.2356 H   0  0  0  0  0  0  0  0  0  0  0  0
   11.5336    5.2855    9.7117 H   0  0  0  0  0  0  0  0  0  0  0  0
   13.8268    3.8132    8.2443 H   0  0  0  0  0  0  0  0  0  0  0  0
   12.8956    3.2979    9.6606 H   0  0  0  0  0  0  0  0  0  0  0  0
   11.2910    4.8823    6.9248 H   0  0  0  0  0  0  0  0  0  0  0  0
   12.6047    3.9396    6.1011 H   0  0  0  0  0  0  0  0  0  0  0  0
   10.8534    3.3423    6.1649 H   0  0  0  0  0  0  0  0  0  0  0  0
  1  3  2  0
  1  4  1  0
  1  5  1  0
  2  4  1  0
  2  6  1  0
  4  9  1  0
  4 15  1  0
  5  6  1  0
  5  8  1  0
  6  7  2  3
  9 10  2  0
  9 14  1  0
 10 11  1  0
 11 12  2  0
 12 13  1  0
 13 14  2  0
 15 16  2  0
 15 20  1  0
 16 17  1  0
 17 18  2  0
 18 19  1  0
 19 20  2  0
  2 21  1  0
  7 22  1  0
  8 23  1  0
  8 24  1  0
  8 25  1  0
 10 26  1  0
 11 27  1  0
 12 28  1  0
 13 29  1  0
 14 30  1  0
 16 31  1  0
 17 32  1  0
 19 33  1  0
 20 34  1  0
 35 36  1  0
 36 37  1  0
 37 38  1  0
 35 39  1  0
 35 40  1  0
 36 41  1  0
 36 42  1  0
 38 43  1  0
 38 44  1  0
 38 45  1  0
 18 35  1  0
M  END
>  <attachment_point>  (165) 
32

>  <score>  (165) 
<NA>

$$$$
4djw
     RDKit          3D

 53 56  0  0  0  0  0  0  0  0999 V2000
   22.4950   11.8750   22.5810 C   0  0  0  0  0  0  0  0  0  0  0  0
   22.5380    9.4930   22.4640 N   0  0  0  0  0  0  0  0  0  0  0  0
   22.3600   13.0630   22.3480 O   0  0  0  0  0  0  0  0  0  0  0  0
   22.3390   10.6680   21.5610 C   0  0  0  0  0  0  0  0  0  0  0  0
   22.7860   11.3350   23.8120 N   0  0  0  0  0  0  0  0  0  0  0  0
   22.7800    9.9140   23.7010 C   0  0  0  0  0  0  0  0  0  0  0  0
   22.9970    9.1110   24.7490 N   0  0  0  0  0  0  0  0  0  0  0  0
   23.0220   12.1410   25.0180 C   0  0  0  0  0  0  0  0  0  0  0  0
   20.9020   10.6270   21.0050 C   0  0  0  0  0  0  0  0  0  0  0  0
   20.2720    9.4140   20.7470 C   0  0  0  0  0  0  0  0  0  0  0  0
   18.9690    9.3760   20.2600 C   0  0  0  0  0  0  0  0  0  0  0  0
   18.2800   10.5440   20.0210 C   0  0  0  0  0  0  0  0  0  0  0  0
   18.8920   11.7530   20.2590 C   0  0  0  0  0  0  0  0  0  0  0  0
   20.1950   11.7970   20.7440 C   0  0  0  0  0  0  0  0  0  0  0  0
   23.4880   10.6920   20.5300 C   0  0  0  0  0  0  0  0  0  0  0  0
   23.2110   10.7890   19.1730 C   0  0  0  0  0  0  0  0  0  0  0  0
   24.2350   10.8650   18.2430 C   0  0  0  0  0  0  0  0  0  0  0  0
   25.5500   10.8410   18.6560 C   0  0  0  0  0  0  0  0  0  0  0  0
   25.8710   10.7460   20.0070 C   0  0  0  0  0  0  0  0  0  0  0  0
   24.8260   10.6610   20.9430 C   0  0  0  0  0  0  0  0  0  0  0  0
    0.0000    0.0000    0.0000 H   0  0  0  0  0  0  0  0  0  0  0  0
    0.0000    0.0000    0.0000 H   0  0  0  0  0  0  0  0  0  0  0  0
    0.0000    0.0000    0.0000 H   0  0  0  0  0  0  0  0  0  0  0  0
    0.0000    0.0000    0.0000 H   0  0  0  0  0  0  0  0  0  0  0  0
    0.0000    0.0000    0.0000 H   0  0  0  0  0  0  0  0  0  0  0  0
    0.0000    0.0000    0.0000 H   0  0  0  0  0  0  0  0  0  0  0  0
    0.0000    0.0000    0.0000 H   0  0  0  0  0  0  0  0  0  0  0  0
    0.0000    0.0000    0.0000 H   0  0  0  0  0  0  0  0  0  0  0  0
    0.0000    0.0000    0.0000 H   0  0  0  0  0  0  0  0  0  0  0  0
    0.0000    0.0000    0.0000 H   0  0  0  0  0  0  0  0  0  0  0  0
    0.0000    0.0000    0.0000 H   0  0  0  0  0  0  0  0  0  0  0  0
    0.0000    0.0000    0.0000 H   0  0  0  0  0  0  0  0  0  0  0  0
    0.0000    0.0000    0.0000 H   0  0  0  0  0  0  0  0  0  0  0  0
    0.0000    0.0000    0.0000 H   0  0  0  0  0  0  0  0  0  0  0  0
   12.4577    5.2859    9.0963 C   0  0  0  0  0  0  0  0  0  0  0  0
   12.2108    5.9211    7.8976 C   0  0  0  0  0  0  0  0  0  0  0  0
   11.1844    5.5284    7.0883 C   0  0  0  0  0  0  0  0  0  0  0  0
   10.3444    4.4467    7.4732 C   0  0  0  0  0  0  0  0  0  0  0  0
    9.3825    4.0376    6.7710 O   0  0  0  0  0  0  0  0  0  0  0  0
    8.3999    3.6198    6.0536 C   0  0  0  0  0  0  0  0  0  0  0  0
   10.6350    3.8196    8.7183 C   0  0  0  0  0  0  0  0  0  0  0  0
    9.8008    2.7749    9.0618 O   0  0  0  0  0  0  0  0  0  0  0  0
    9.9979    2.0879   10.2734 C   0  0  0  0  0  0  0  0  0  0  0  0
   11.6729    4.2338    9.5123 C   0  0  0  0  0  0  0  0  0  0  0  0
   12.8417    6.7369    7.6035 H   0  0  0  0  0  0  0  0  0  0  0  0
   10.9435    5.9941    6.1314 H   0  0  0  0  0  0  0  0  0  0  0  0
    8.1806    4.1316    5.0658 H   0  0  0  0  0  0  0  0  0  0  0  0
    8.4187    2.5223    5.7209 H   0  0  0  0  0  0  0  0  0  0  0  0
    7.3718    3.6525    6.5617 H   0  0  0  0  0  0  0  0  0  0  0  0
   10.8197    1.3338   10.2058 H   0  0  0  0  0  0  0  0  0  0  0  0
    9.0969    1.5090   10.5747 H   0  0  0  0  0  0  0  0  0  0  0  0
   10.2335    2.7435   11.1316 H   0  0  0  0  0  0  0  0  0  0  0  0
   11.8608    3.7183   10.4652 H   0  0  0  0  0  0  0  0  0  0  0  0
  1  3  2  0
  1  4  1  0
  1  5  1  0
  2  4  1  0
  2  6  1  0
  4  9  1  0
  4 15  1  0
  5  6  1  0
  5  8  1  0
  6  7  2  3
  9 10  2  0
  9 14  1  0
 10 11  1  0
 11 12  2  0
 12 13  1  0
 13 14  2  0
 15 16  2  0
 15 20  1  0
 16 17  1  0
 17 18  2  0
 18 19  1  0
 19 20  2  0
  2 21  1  0
  7 22  1  0
  8 23  1  0
  8 24  1  0
  8 25  1  0
 10 26  1  0
 11 27  1  0
 12 28  1  0
 13 29  1  0
 14 30  1  0
 16 31  1  0
 17 32  1  0
 19 33  1  0
 20 34  1  0
 35 36  2  0
 36 37  1  0
 37 38  2  0
 38 39  1  0
 39 40  1  0
 38 41  1  0
 41 42  1  0
 42 43  1  0
 41 44  2  0
 44 35  1  0
 36 45  1  0
 37 46  1  0
 40 47  1  0
 40 48  1  0
 40 49  1  0
 43 50  1  0
 43 51  1  0
 43 52  1  0
 44 53  1  0
 18 35  1  0
M  END
>  <attachment_point>  (166) 
32

>  <score>  (166) 
<NA>

$$$$
4djw
     RDKit          3D

 42 44  0  0  0  0  0  0  0  0999 V2000
   22.4950   11.8750   22.5810 C   0  0  0  0  0  0  0  0  0  0  0  0
   22.5380    9.4930   22.4640 N   0  0  0  0  0  0  0  0  0  0  0  0
   22.3600   13.0630   22.3480 O   0  0  0  0  0  0  0  0  0  0  0  0
   22.3390   10.6680   21.5610 C   0  0  0  0  0  0  0  0  0  0  0  0
   22.7860   11.3350   23.8120 N   0  0  0  0  0  0  0  0  0  0  0  0
   22.7800    9.9140   23.7010 C   0  0  0  0  0  0  0  0  0  0  0  0
   22.9970    9.1110   24.7490 N   0  0  0  0  0  0  0  0  0  0  0  0
   23.0220   12.1410   25.0180 C   0  0  0  0  0  0  0  0  0  0  0  0
   20.9020   10.6270   21.0050 C   0  0  0  0  0  0  0  0  0  0  0  0
   20.2720    9.4140   20.7470 C   0  0  0  0  0  0  0  0  0  0  0  0
   18.9690    9.3760   20.2600 C   0  0  0  0  0  0  0  0  0  0  0  0
   18.2800   10.5440   20.0210 C   0  0  0  0  0  0  0  0  0  0  0  0
   18.8920   11.7530   20.2590 C   0  0  0  0  0  0  0  0  0  0  0  0
   20.1950   11.7970   20.7440 C   0  0  0  0  0  0  0  0  0  0  0  0
   23.4880   10.6920   20.5300 C   0  0  0  0  0  0  0  0  0  0  0  0
   23.2110   10.7890   19.1730 C   0  0  0  0  0  0  0  0  0  0  0  0
   24.2350   10.8650   18.2430 C   0  0  0  0  0  0  0  0  0  0  0  0
   25.5500   10.8410   18.6560 C   0  0  0  0  0  0  0  0  0  0  0  0
   25.8710   10.7460   20.0070 C   0  0  0  0  0  0  0  0  0  0  0  0
   24.8260   10.6610   20.9430 C   0  0  0  0  0  0  0  0  0  0  0  0
    0.0000    0.0000    0.0000 H   0  0  0  0  0  0  0  0  0  0  0  0
    0.0000    0.0000    0.0000 H   0  0  0  0  0  0  0  0  0  0  0  0
    0.0000    0.0000    0.0000 H   0  0  0  0  0  0  0  0  0  0  0  0
    0.0000    0.0000    0.0000 H   0  0  0  0  0  0  0  0  0  0  0  0
    0.0000    0.0000    0.0000 H   0  0  0  0  0  0  0  0  0  0  0  0
    0.0000    0.0000    0.0000 H   0  0  0  0  0  0  0  0  0  0  0  0
    0.0000    0.0000    0.0000 H   0  0  0  0  0  0  0  0  0  0  0  0
    0.0000    0.0000    0.0000 H   0  0  0  0  0  0  0  0  0  0  0  0
    0.0000    0.0000    0.0000 H   0  0  0  0  0  0  0  0  0  0  0  0
    0.0000    0.0000    0.0000 H   0  0  0  0  0  0  0  0  0  0  0  0
    0.0000    0.0000    0.0000 H   0  0  0  0  0  0  0  0  0  0  0  0
    0.0000    0.0000    0.0000 H   0  0  0  0  0  0  0  0  0  0  0  0
    0.0000    0.0000    0.0000 H   0  0  0  0  0  0  0  0  0  0  0  0
    0.0000    0.0000    0.0000 H   0  0  0  0  0  0  0  0  0  0  0  0
   12.4467    5.2812    9.0883 C   0  0  2  0  0  0  0  0  0  0  0  0
   12.9250    4.4907    7.8794 C   0  0  0  0  0  0  0  0  0  0  0  0
   11.6282    6.3114    8.6992 O   0  0  0  0  0  0  0  0  0  0  0  0
   11.8224    4.5594    9.6832 H   0  0  0  0  0  0  0  0  0  0  0  0
   13.2658    5.2130    7.1050 H   0  0  0  0  0  0  0  0  0  0  0  0
   13.7063    3.7797    8.1453 H   0  0  0  0  0  0  0  0  0  0  0  0
   12.0044    3.9891    7.4724 H   0  0  0  0  0  0  0  0  0  0  0  0
   11.5511    6.4484    7.7358 H   0  0  0  0  0  0  0  0  0  0  0  0
  1  3  2  0
  1  4  1  0
  1  5  1  0
  2  4  1  0
  2  6  1  0
  4  9  1  0
  4 15  1  0
  5  6  1  0
  5  8  1  0
  6  7  2  3
  9 10  2  0
  9 14  1  0
 10 11  1  0
 11 12  2  0
 12 13  1  0
 13 14  2  0
 15 16  2  0
 15 20  1  0
 16 17  1  0
 17 18  2  0
 18 19  1  0
 19 20  2  0
  2 21  1  0
  7 22  1  0
  8 23  1  0
  8 24  1  0
  8 25  1  0
 10 26  1  0
 11 27  1  0
 12 28  1  0
 13 29  1  0
 14 30  1  0
 16 31  1  0
 17 32  1  0
 19 33  1  0
 20 34  1  0
 35 36  1  0
 35 37  1  0
 35 38  1  6
 36 39  1  0
 36 40  1  0
 36 41  1  0
 37 42  1  0
 18 35  1  0
M  END
>  <attachment_point>  (167) 
32

>  <score>  (167) 
<NA>

$$$$
4djw
     RDKit          3D

 47 50  0  0  0  0  0  0  0  0999 V2000
   22.4950   11.8750   22.5810 C   0  0  0  0  0  0  0  0  0  0  0  0
   22.5380    9.4930   22.4640 N   0  0  0  0  0  0  0  0  0  0  0  0
   22.3600   13.0630   22.3480 O   0  0  0  0  0  0  0  0  0  0  0  0
   22.3390   10.6680   21.5610 C   0  0  0  0  0  0  0  0  0  0  0  0
   22.7860   11.3350   23.8120 N   0  0  0  0  0  0  0  0  0  0  0  0
   22.7800    9.9140   23.7010 C   0  0  0  0  0  0  0  0  0  0  0  0
   22.9970    9.1110   24.7490 N   0  0  0  0  0  0  0  0  0  0  0  0
   23.0220   12.1410   25.0180 C   0  0  0  0  0  0  0  0  0  0  0  0
   20.9020   10.6270   21.0050 C   0  0  0  0  0  0  0  0  0  0  0  0
   20.2720    9.4140   20.7470 C   0  0  0  0  0  0  0  0  0  0  0  0
   18.9690    9.3760   20.2600 C   0  0  0  0  0  0  0  0  0  0  0  0
   18.2800   10.5440   20.0210 C   0  0  0  0  0  0  0  0  0  0  0  0
   18.8920   11.7530   20.2590 C   0  0  0  0  0  0  0  0  0  0  0  0
   20.1950   11.7970   20.7440 C   0  0  0  0  0  0  0  0  0  0  0  0
   23.4880   10.6920   20.5300 C   0  0  0  0  0  0  0  0  0  0  0  0
   23.2110   10.7890   19.1730 C   0  0  0  0  0  0  0  0  0  0  0  0
   24.2350   10.8650   18.2430 C   0  0  0  0  0  0  0  0  0  0  0  0
   25.5500   10.8410   18.6560 C   0  0  0  0  0  0  0  0  0  0  0  0
   25.8710   10.7460   20.0070 C   0  0  0  0  0  0  0  0  0  0  0  0
   24.8260   10.6610   20.9430 C   0  0  0  0  0  0  0  0  0  0  0  0
    0.0000    0.0000    0.0000 H   0  0  0  0  0  0  0  0  0  0  0  0
    0.0000    0.0000    0.0000 H   0  0  0  0  0  0  0  0  0  0  0  0
    0.0000    0.0000    0.0000 H   0  0  0  0  0  0  0  0  0  0  0  0
    0.0000    0.0000    0.0000 H   0  0  0  0  0  0  0  0  0  0  0  0
    0.0000    0.0000    0.0000 H   0  0  0  0  0  0  0  0  0  0  0  0
    0.0000    0.0000    0.0000 H   0  0  0  0  0  0  0  0  0  0  0  0
    0.0000    0.0000    0.0000 H   0  0  0  0  0  0  0  0  0  0  0  0
    0.0000    0.0000    0.0000 H   0  0  0  0  0  0  0  0  0  0  0  0
    0.0000    0.0000    0.0000 H   0  0  0  0  0  0  0  0  0  0  0  0
    0.0000    0.0000    0.0000 H   0  0  0  0  0  0  0  0  0  0  0  0
    0.0000    0.0000    0.0000 H   0  0  0  0  0  0  0  0  0  0  0  0
    0.0000    0.0000    0.0000 H   0  0  0  0  0  0  0  0  0  0  0  0
    0.0000    0.0000    0.0000 H   0  0  0  0  0  0  0  0  0  0  0  0
    0.0000    0.0000    0.0000 H   0  0  0  0  0  0  0  0  0  0  0  0
   12.4530    5.2839    9.0929 C   0  0  0  0  0  0  0  0  0  0  0  0
   12.0633    6.1658    8.0778 C   0  0  0  0  0  0  0  0  0  0  0  0
   11.0254    5.8333    7.2447 C   0  0  0  0  0  0  0  0  0  0  0  0
   10.3475    4.6416    7.3803 C   0  0  0  0  0  0  0  0  0  0  0  0
    9.2719    4.2770    6.5308 N   0  0  0  0  0  4  0  0  0  0  0  0
    8.9045    5.0214    5.6345 O   0  0  0  0  0  0  0  0  0  0  0  0
    8.6565    3.0872    6.7294 O   0  0  0  0  0  1  0  0  0  0  0  0
   10.7625    3.7805    8.4068 C   0  0  0  0  0  0  0  0  0  0  0  0
   11.7951    4.0917    9.2493 C   0  0  0  0  0  0  0  0  0  0  0  0
   12.5579    7.1160    7.9225 H   0  0  0  0  0  0  0  0  0  0  0  0
   10.6858    6.4899    6.4381 H   0  0  0  0  0  0  0  0  0  0  0  0
   10.2126    2.8443    8.4956 H   0  0  0  0  0  0  0  0  0  0  0  0
   12.1031    3.4296   10.0274 H   0  0  0  0  0  0  0  0  0  0  0  0
  1  3  2  0
  1  4  1  0
  1  5  1  0
  2  4  1  0
  2  6  1  0
  4  9  1  0
  4 15  1  0
  5  6  1  0
  5  8  1  0
  6  7  2  3
  9 10  2  0
  9 14  1  0
 10 11  1  0
 11 12  2  0
 12 13  1  0
 13 14  2  0
 15 16  2  0
 15 20  1  0
 16 17  1  0
 17 18  2  0
 18 19  1  0
 19 20  2  0
  2 21  1  0
  7 22  1  0
  8 23  1  0
  8 24  1  0
  8 25  1  0
 10 26  1  0
 11 27  1  0
 12 28  1  0
 13 29  1  0
 14 30  1  0
 16 31  1  0
 17 32  1  0
 19 33  1  0
 20 34  1  0
 35 36  2  0
 36 37  1  0
 37 38  2  0
 38 39  1  0
 39 40  2  0
 39 41  1  0
 38 42  1  0
 42 43  2  0
 43 35  1  0
 36 44  1  0
 37 45  1  0
 42 46  1  0
 43 47  1  0
 18 35  1  0
M  CHG  2  39   1  41  -1
M  END
>  <attachment_point>  (168) 
32

>  <score>  (168) 
<NA>

$$$$
4djw
     RDKit          3D

 47 50  0  0  0  0  0  0  0  0999 V2000
   22.4950   11.8750   22.5810 C   0  0  0  0  0  0  0  0  0  0  0  0
   22.5380    9.4930   22.4640 N   0  0  0  0  0  0  0  0  0  0  0  0
   22.3600   13.0630   22.3480 O   0  0  0  0  0  0  0  0  0  0  0  0
   22.3390   10.6680   21.5610 C   0  0  0  0  0  0  0  0  0  0  0  0
   22.7860   11.3350   23.8120 N   0  0  0  0  0  0  0  0  0  0  0  0
   22.7800    9.9140   23.7010 C   0  0  0  0  0  0  0  0  0  0  0  0
   22.9970    9.1110   24.7490 N   0  0  0  0  0  0  0  0  0  0  0  0
   23.0220   12.1410   25.0180 C   0  0  0  0  0  0  0  0  0  0  0  0
   20.9020   10.6270   21.0050 C   0  0  0  0  0  0  0  0  0  0  0  0
   20.2720    9.4140   20.7470 C   0  0  0  0  0  0  0  0  0  0  0  0
   18.9690    9.3760   20.2600 C   0  0  0  0  0  0  0  0  0  0  0  0
   18.2800   10.5440   20.0210 C   0  0  0  0  0  0  0  0  0  0  0  0
   18.8920   11.7530   20.2590 C   0  0  0  0  0  0  0  0  0  0  0  0
   20.1950   11.7970   20.7440 C   0  0  0  0  0  0  0  0  0  0  0  0
   23.4880   10.6920   20.5300 C   0  0  0  0  0  0  0  0  0  0  0  0
   23.2110   10.7890   19.1730 C   0  0  0  0  0  0  0  0  0  0  0  0
   24.2350   10.8650   18.2430 C   0  0  0  0  0  0  0  0  0  0  0  0
   25.5500   10.8410   18.6560 C   0  0  0  0  0  0  0  0  0  0  0  0
   25.8710   10.7460   20.0070 C   0  0  0  0  0  0  0  0  0  0  0  0
   24.8260   10.6610   20.9430 C   0  0  0  0  0  0  0  0  0  0  0  0
    0.0000    0.0000    0.0000 H   0  0  0  0  0  0  0  0  0  0  0  0
    0.0000    0.0000    0.0000 H   0  0  0  0  0  0  0  0  0  0  0  0
    0.0000    0.0000    0.0000 H   0  0  0  0  0  0  0  0  0  0  0  0
    0.0000    0.0000    0.0000 H   0  0  0  0  0  0  0  0  0  0  0  0
    0.0000    0.0000    0.0000 H   0  0  0  0  0  0  0  0  0  0  0  0
    0.0000    0.0000    0.0000 H   0  0  0  0  0  0  0  0  0  0  0  0
    0.0000    0.0000    0.0000 H   0  0  0  0  0  0  0  0  0  0  0  0
    0.0000    0.0000    0.0000 H   0  0  0  0  0  0  0  0  0  0  0  0
    0.0000    0.0000    0.0000 H   0  0  0  0  0  0  0  0  0  0  0  0
    0.0000    0.0000    0.0000 H   0  0  0  0  0  0  0  0  0  0  0  0
    0.0000    0.0000    0.0000 H   0  0  0  0  0  0  0  0  0  0  0  0
    0.0000    0.0000    0.0000 H   0  0  0  0  0  0  0  0  0  0  0  0
    0.0000    0.0000    0.0000 H   0  0  0  0  0  0  0  0  0  0  0  0
    0.0000    0.0000    0.0000 H   0  0  0  0  0  0  0  0  0  0  0  0
   12.4292    5.2738    9.0755 C   0  0  0  0  0  0  0  0  0  0  0  0
   11.2619    5.9993    9.0102 C   0  0  0  0  0  0  0  0  0  0  0  0
   10.2458    5.4994    8.2241 C   0  0  0  0  0  0  0  0  0  0  0  0
   10.3920    4.3143    7.5268 C   0  0  0  0  0  0  0  0  0  0  0  0
   11.5657    3.5915    7.5967 C   0  0  0  0  0  0  0  0  0  0  0  0
   11.7412    2.3645    6.8859 N   0  0  0  0  0  4  0  0  0  0  0  0
   12.8070    1.7561    6.9803 O   0  0  0  0  0  0  0  0  0  0  0  0
   10.6825    1.9179    6.1145 O   0  0  0  0  0  1  0  0  0  0  0  0
   12.5924    4.0915    8.3878 C   0  0  0  0  0  0  0  0  0  0  0  0
   11.1310    6.9423    9.5584 H   0  0  0  0  0  0  0  0  0  0  0  0
    9.3146    6.0650    8.1635 H   0  0  0  0  0  0  0  0  0  0  0  0
    9.5592    3.9462    6.9093 H   0  0  0  0  0  0  0  0  0  0  0  0
   13.4965    3.5200    8.4323 H   0  0  0  0  0  0  0  0  0  0  0  0
  1  3  2  0
  1  4  1  0
  1  5  1  0
  2  4  1  0
  2  6  1  0
  4  9  1  0
  4 15  1  0
  5  6  1  0
  5  8  1  0
  6  7  2  3
  9 10  2  0
  9 14  1  0
 10 11  1  0
 11 12  2  0
 12 13  1  0
 13 14  2  0
 15 16  2  0
 15 20  1  0
 16 17  1  0
 17 18  2  0
 18 19  1  0
 19 20  2  0
  2 21  1  0
  7 22  1  0
  8 23  1  0
  8 24  1  0
  8 25  1  0
 10 26  1  0
 11 27  1  0
 12 28  1  0
 13 29  1  0
 14 30  1  0
 16 31  1  0
 17 32  1  0
 19 33  1  0
 20 34  1  0
 35 36  2  0
 36 37  1  0
 37 38  2  0
 38 39  1  0
 39 40  1  0
 40 41  2  0
 40 42  1  0
 39 43  2  0
 43 35  1  0
 36 44  1  0
 37 45  1  0
 38 46  1  0
 43 47  1  0
 18 35  1  0
M  CHG  2  40   1  42  -1
M  END
>  <attachment_point>  (169) 
32

>  <score>  (169) 
<NA>

$$$$
4djw
     RDKit          3D

 47 50  0  0  0  0  0  0  0  0999 V2000
   22.4950   11.8750   22.5810 C   0  0  0  0  0  0  0  0  0  0  0  0
   22.5380    9.4930   22.4640 N   0  0  0  0  0  0  0  0  0  0  0  0
   22.3600   13.0630   22.3480 O   0  0  0  0  0  0  0  0  0  0  0  0
   22.3390   10.6680   21.5610 C   0  0  0  0  0  0  0  0  0  0  0  0
   22.7860   11.3350   23.8120 N   0  0  0  0  0  0  0  0  0  0  0  0
   22.7800    9.9140   23.7010 C   0  0  0  0  0  0  0  0  0  0  0  0
   22.9970    9.1110   24.7490 N   0  0  0  0  0  0  0  0  0  0  0  0
   23.0220   12.1410   25.0180 C   0  0  0  0  0  0  0  0  0  0  0  0
   20.9020   10.6270   21.0050 C   0  0  0  0  0  0  0  0  0  0  0  0
   20.2720    9.4140   20.7470 C   0  0  0  0  0  0  0  0  0  0  0  0
   18.9690    9.3760   20.2600 C   0  0  0  0  0  0  0  0  0  0  0  0
   18.2800   10.5440   20.0210 C   0  0  0  0  0  0  0  0  0  0  0  0
   18.8920   11.7530   20.2590 C   0  0  0  0  0  0  0  0  0  0  0  0
   20.1950   11.7970   20.7440 C   0  0  0  0  0  0  0  0  0  0  0  0
   23.4880   10.6920   20.5300 C   0  0  0  0  0  0  0  0  0  0  0  0
   23.2110   10.7890   19.1730 C   0  0  0  0  0  0  0  0  0  0  0  0
   24.2350   10.8650   18.2430 C   0  0  0  0  0  0  0  0  0  0  0  0
   25.5500   10.8410   18.6560 C   0  0  0  0  0  0  0  0  0  0  0  0
   25.8710   10.7460   20.0070 C   0  0  0  0  0  0  0  0  0  0  0  0
   24.8260   10.6610   20.9430 C   0  0  0  0  0  0  0  0  0  0  0  0
    0.0000    0.0000    0.0000 H   0  0  0  0  0  0  0  0  0  0  0  0
    0.0000    0.0000    0.0000 H   0  0  0  0  0  0  0  0  0  0  0  0
    0.0000    0.0000    0.0000 H   0  0  0  0  0  0  0  0  0  0  0  0
    0.0000    0.0000    0.0000 H   0  0  0  0  0  0  0  0  0  0  0  0
    0.0000    0.0000    0.0000 H   0  0  0  0  0  0  0  0  0  0  0  0
    0.0000    0.0000    0.0000 H   0  0  0  0  0  0  0  0  0  0  0  0
    0.0000    0.0000    0.0000 H   0  0  0  0  0  0  0  0  0  0  0  0
    0.0000    0.0000    0.0000 H   0  0  0  0  0  0  0  0  0  0  0  0
    0.0000    0.0000    0.0000 H   0  0  0  0  0  0  0  0  0  0  0  0
    0.0000    0.0000    0.0000 H   0  0  0  0  0  0  0  0  0  0  0  0
    0.0000    0.0000    0.0000 H   0  0  0  0  0  0  0  0  0  0  0  0
    0.0000    0.0000    0.0000 H   0  0  0  0  0  0  0  0  0  0  0  0
    0.0000    0.0000    0.0000 H   0  0  0  0  0  0  0  0  0  0  0  0
    0.0000    0.0000    0.0000 H   0  0  0  0  0  0  0  0  0  0  0  0
   12.3095    5.2230    8.9881 C   0  0  0  0  0  0  0  0  0  0  0  0
   11.2126    4.7345    8.1661 C   0  0  0  0  0  0  0  0  0  0  0  0
   10.3998    4.3526    7.5433 C   0  0  0  0  0  0  0  0  0  0  0  0
   10.6335    3.8854    6.1320 C   0  0  0  0  0  0  0  0  0  0  0  0
    9.5490    3.3881    5.5919 C   0  0  0  0  0  0  0  0  0  0  0  0
    8.2827    3.1606    5.9039 C   0  0  0  0  0  0  0  0  0  0  0  0
    8.0044    3.6019    7.2447 C   0  0  0  0  0  0  0  0  0  0  0  0
    9.0079    4.1678    8.0064 C   0  0  0  0  0  0  0  0  0  0  0  0
   11.6186    4.0879    5.7749 H   0  0  0  0  0  0  0  0  0  0  0  0
    9.7644    3.0135    4.4548 H   0  0  0  0  0  0  0  0  0  0  0  0
    7.5002    2.7356    5.4080 H   0  0  0  0  0  0  0  0  0  0  0  0
    7.0626    3.4414    7.7260 H   0  0  0  0  0  0  0  0  0  0  0  0
    8.8485    4.6168    8.9588 H   0  0  0  0  0  0  0  0  0  0  0  0
  1  3  2  0
  1  4  1  0
  1  5  1  0
  2  4  1  0
  2  6  1  0
  4  9  1  0
  4 15  1  0
  5  6  1  0
  5  8  1  0
  6  7  2  3
  9 10  2  0
  9 14  1  0
 10 11  1  0
 11 12  2  0
 12 13  1  0
 13 14  2  0
 15 16  2  0
 15 20  1  0
 16 17  1  0
 17 18  2  0
 18 19  1  0
 19 20  2  0
  2 21  1  0
  7 22  1  0
  8 23  1  0
  8 24  1  0
  8 25  1  0
 10 26  1  0
 11 27  1  0
 12 28  1  0
 13 29  1  0
 14 30  1  0
 16 31  1  0
 17 32  1  0
 19 33  1  0
 20 34  1  0
 35 36  3  0
 36 37  1  0
 37 38  2  0
 38 39  1  0
 39 40  2  0
 40 41  1  0
 41 42  2  0
 42 37  1  0
 38 43  1  0
 39 44  1  0
 40 45  1  0
 41 46  1  0
 42 47  1  0
 18 35  1  0
M  END
>  <attachment_point>  (170) 
32

>  <score>  (170) 
<NA>

$$$$
4djw
     RDKit          3D

 48 51  0  0  0  0  0  0  0  0999 V2000
   22.4950   11.8750   22.5810 C   0  0  0  0  0  0  0  0  0  0  0  0
   22.5380    9.4930   22.4640 N   0  0  0  0  0  0  0  0  0  0  0  0
   22.3600   13.0630   22.3480 O   0  0  0  0  0  0  0  0  0  0  0  0
   22.3390   10.6680   21.5610 C   0  0  0  0  0  0  0  0  0  0  0  0
   22.7860   11.3350   23.8120 N   0  0  0  0  0  0  0  0  0  0  0  0
   22.7800    9.9140   23.7010 C   0  0  0  0  0  0  0  0  0  0  0  0
   22.9970    9.1110   24.7490 N   0  0  0  0  0  0  0  0  0  0  0  0
   23.0220   12.1410   25.0180 C   0  0  0  0  0  0  0  0  0  0  0  0
   20.9020   10.6270   21.0050 C   0  0  0  0  0  0  0  0  0  0  0  0
   20.2720    9.4140   20.7470 C   0  0  0  0  0  0  0  0  0  0  0  0
   18.9690    9.3760   20.2600 C   0  0  0  0  0  0  0  0  0  0  0  0
   18.2800   10.5440   20.0210 C   0  0  0  0  0  0  0  0  0  0  0  0
   18.8920   11.7530   20.2590 C   0  0  0  0  0  0  0  0  0  0  0  0
   20.1950   11.7970   20.7440 C   0  0  0  0  0  0  0  0  0  0  0  0
   23.4880   10.6920   20.5300 C   0  0  0  0  0  0  0  0  0  0  0  0
   23.2110   10.7890   19.1730 C   0  0  0  0  0  0  0  0  0  0  0  0
   24.2350   10.8650   18.2430 C   0  0  0  0  0  0  0  0  0  0  0  0
   25.5500   10.8410   18.6560 C   0  0  0  0  0  0  0  0  0  0  0  0
   25.8710   10.7460   20.0070 C   0  0  0  0  0  0  0  0  0  0  0  0
   24.8260   10.6610   20.9430 C   0  0  0  0  0  0  0  0  0  0  0  0
    0.0000    0.0000    0.0000 H   0  0  0  0  0  0  0  0  0  0  0  0
    0.0000    0.0000    0.0000 H   0  0  0  0  0  0  0  0  0  0  0  0
    0.0000    0.0000    0.0000 H   0  0  0  0  0  0  0  0  0  0  0  0
    0.0000    0.0000    0.0000 H   0  0  0  0  0  0  0  0  0  0  0  0
    0.0000    0.0000    0.0000 H   0  0  0  0  0  0  0  0  0  0  0  0
    0.0000    0.0000    0.0000 H   0  0  0  0  0  0  0  0  0  0  0  0
    0.0000    0.0000    0.0000 H   0  0  0  0  0  0  0  0  0  0  0  0
    0.0000    0.0000    0.0000 H   0  0  0  0  0  0  0  0  0  0  0  0
    0.0000    0.0000    0.0000 H   0  0  0  0  0  0  0  0  0  0  0  0
    0.0000    0.0000    0.0000 H   0  0  0  0  0  0  0  0  0  0  0  0
    0.0000    0.0000    0.0000 H   0  0  0  0  0  0  0  0  0  0  0  0
    0.0000    0.0000    0.0000 H   0  0  0  0  0  0  0  0  0  0  0  0
    0.0000    0.0000    0.0000 H   0  0  0  0  0  0  0  0  0  0  0  0
    0.0000    0.0000    0.0000 H   0  0  0  0  0  0  0  0  0  0  0  0
   12.3624    5.2455    9.0268 C   0  0  0  0  0  0  0  0  0  0  0  0
   12.2779    4.0681    8.9123 O   0  0  0  0  0  0  0  0  0  0  0  0
   11.6239    6.3191    8.5515 N   0  0  0  0  0  0  0  0  0  0  0  0
   10.4671    6.0613    7.7175 C   0  0  0  0  0  0  0  0  0  0  0  0
    9.2287    5.8950    8.3021 C   0  0  0  0  0  0  0  0  0  0  0  0
    8.1114    5.6464    7.5024 C   0  0  0  0  0  0  0  0  0  0  0  0
    8.2787    5.5734    6.1366 C   0  0  0  0  0  0  0  0  0  0  0  0
    9.4956    5.7373    5.5674 N   0  0  0  0  0  0  0  0  0  0  0  0
   10.5763    5.9789    6.3578 C   0  0  0  0  0  0  0  0  0  0  0  0
   11.8923    7.2895    8.7870 H   0  0  0  0  0  0  0  0  0  0  0  0
    9.1683    5.9642    9.3720 H   0  0  0  0  0  0  0  0  0  0  0  0
    7.1374    5.5169    7.9786 H   0  0  0  0  0  0  0  0  0  0  0  0
    7.3825    5.3772    5.5378 H   0  0  0  0  0  0  0  0  0  0  0  0
   11.5749    6.1161    5.9279 H   0  0  0  0  0  0  0  0  0  0  0  0
  1  3  2  0
  1  4  1  0
  1  5  1  0
  2  4  1  0
  2  6  1  0
  4  9  1  0
  4 15  1  0
  5  6  1  0
  5  8  1  0
  6  7  2  3
  9 10  2  0
  9 14  1  0
 10 11  1  0
 11 12  2  0
 12 13  1  0
 13 14  2  0
 15 16  2  0
 15 20  1  0
 16 17  1  0
 17 18  2  0
 18 19  1  0
 19 20  2  0
  2 21  1  0
  7 22  1  0
  8 23  1  0
  8 24  1  0
  8 25  1  0
 10 26  1  0
 11 27  1  0
 12 28  1  0
 13 29  1  0
 14 30  1  0
 16 31  1  0
 17 32  1  0
 19 33  1  0
 20 34  1  0
 35 36  2  0
 35 37  1  0
 37 38  1  0
 38 39  2  0
 39 40  1  0
 40 41  2  0
 41 42  1  0
 42 43  2  0
 43 38  1  0
 37 44  1  0
 39 45  1  0
 40 46  1  0
 41 47  1  0
 43 48  1  0
 18 35  1  0
M  END
>  <attachment_point>  (171) 
32

>  <score>  (171) 
<NA>

$$$$
4djw
     RDKit          3D

 57 60  0  0  0  0  0  0  0  0999 V2000
   22.4950   11.8750   22.5810 C   0  0  0  0  0  0  0  0  0  0  0  0
   22.5380    9.4930   22.4640 N   0  0  0  0  0  0  0  0  0  0  0  0
   22.3600   13.0630   22.3480 O   0  0  0  0  0  0  0  0  0  0  0  0
   22.3390   10.6680   21.5610 C   0  0  0  0  0  0  0  0  0  0  0  0
   22.7860   11.3350   23.8120 N   0  0  0  0  0  0  0  0  0  0  0  0
   22.7800    9.9140   23.7010 C   0  0  0  0  0  0  0  0  0  0  0  0
   22.9970    9.1110   24.7490 N   0  0  0  0  0  0  0  0  0  0  0  0
   23.0220   12.1410   25.0180 C   0  0  0  0  0  0  0  0  0  0  0  0
   20.9020   10.6270   21.0050 C   0  0  0  0  0  0  0  0  0  0  0  0
   20.2720    9.4140   20.7470 C   0  0  0  0  0  0  0  0  0  0  0  0
   18.9690    9.3760   20.2600 C   0  0  0  0  0  0  0  0  0  0  0  0
   18.2800   10.5440   20.0210 C   0  0  0  0  0  0  0  0  0  0  0  0
   18.8920   11.7530   20.2590 C   0  0  0  0  0  0  0  0  0  0  0  0
   20.1950   11.7970   20.7440 C   0  0  0  0  0  0  0  0  0  0  0  0
   23.4880   10.6920   20.5300 C   0  0  0  0  0  0  0  0  0  0  0  0
   23.2110   10.7890   19.1730 C   0  0  0  0  0  0  0  0  0  0  0  0
   24.2350   10.8650   18.2430 C   0  0  0  0  0  0  0  0  0  0  0  0
   25.5500   10.8410   18.6560 C   0  0  0  0  0  0  0  0  0  0  0  0
   25.8710   10.7460   20.0070 C   0  0  0  0  0  0  0  0  0  0  0  0
   24.8260   10.6610   20.9430 C   0  0  0  0  0  0  0  0  0  0  0  0
    0.0000    0.0000    0.0000 H   0  0  0  0  0  0  0  0  0  0  0  0
    0.0000    0.0000    0.0000 H   0  0  0  0  0  0  0  0  0  0  0  0
    0.0000    0.0000    0.0000 H   0  0  0  0  0  0  0  0  0  0  0  0
    0.0000    0.0000    0.0000 H   0  0  0  0  0  0  0  0  0  0  0  0
    0.0000    0.0000    0.0000 H   0  0  0  0  0  0  0  0  0  0  0  0
    0.0000    0.0000    0.0000 H   0  0  0  0  0  0  0  0  0  0  0  0
    0.0000    0.0000    0.0000 H   0  0  0  0  0  0  0  0  0  0  0  0
    0.0000    0.0000    0.0000 H   0  0  0  0  0  0  0  0  0  0  0  0
    0.0000    0.0000    0.0000 H   0  0  0  0  0  0  0  0  0  0  0  0
    0.0000    0.0000    0.0000 H   0  0  0  0  0  0  0  0  0  0  0  0
    0.0000    0.0000    0.0000 H   0  0  0  0  0  0  0  0  0  0  0  0
    0.0000    0.0000    0.0000 H   0  0  0  0  0  0  0  0  0  0  0  0
    0.0000    0.0000    0.0000 H   0  0  0  0  0  0  0  0  0  0  0  0
    0.0000    0.0000    0.0000 H   0  0  0  0  0  0  0  0  0  0  0  0
   12.4484    5.2819    9.0895 O   0  0  0  0  0  0  0  0  0  0  0  0
   13.0734    5.2202    7.8259 C   0  0  0  0  0  0  0  0  0  0  0  0
   12.0821    4.7330    6.8059 C   0  0  0  0  0  0  0  0  0  0  0  0
   12.4981    4.6050    5.5091 N   0  0  0  0  0  0  0  0  0  0  0  0
   13.4199    3.6523    5.1001 C   0  0  0  0  0  0  0  0  0  0  0  0
   13.1552    3.0076    3.7754 C   0  0  0  0  0  0  0  0  0  0  0  0
   12.2528    3.7331    2.8624 C   0  0  0  0  0  0  0  0  0  0  0  0
   11.2956    4.6932    3.5108 C   0  0  0  0  0  0  0  0  0  0  0  0
   12.1034    5.5307    4.5138 C   0  0  0  0  0  0  0  0  0  0  0  0
   13.5048    6.1975    7.6185 H   0  0  0  0  0  0  0  0  0  0  0  0
   13.9101    4.4811    7.9107 H   0  0  0  0  0  0  0  0  0  0  0  0
   11.1948    5.4084    6.8747 H   0  0  0  0  0  0  0  0  0  0  0  0
   11.6913    3.7443    7.1890 H   0  0  0  0  0  0  0  0  0  0  0  0
   14.4381    4.1369    5.0132 H   0  0  0  0  0  0  0  0  0  0  0  0
   13.5621    2.8661    5.8894 H   0  0  0  0  0  0  0  0  0  0  0  0
   14.1159    2.8016    3.2270 H   0  0  0  0  0  0  0  0  0  0  0  0
   12.7348    1.9823    3.9712 H   0  0  0  0  0  0  0  0  0  0  0  0
   11.6223    3.0062    2.2723 H   0  0  0  0  0  0  0  0  0  0  0  0
   12.7917    4.3217    2.0631 H   0  0  0  0  0  0  0  0  0  0  0  0
   10.5972    4.0877    4.1326 H   0  0  0  0  0  0  0  0  0  0  0  0
   10.8032    5.3027    2.7587 H   0  0  0  0  0  0  0  0  0  0  0  0
   11.5874    6.4243    4.8359 H   0  0  0  0  0  0  0  0  0  0  0  0
   13.0380    5.8199    3.9459 H   0  0  0  0  0  0  0  0  0  0  0  0
  1  3  2  0
  1  4  1  0
  1  5  1  0
  2  4  1  0
  2  6  1  0
  4  9  1  0
  4 15  1  0
  5  6  1  0
  5  8  1  0
  6  7  2  3
  9 10  2  0
  9 14  1  0
 10 11  1  0
 11 12  2  0
 12 13  1  0
 13 14  2  0
 15 16  2  0
 15 20  1  0
 16 17  1  0
 17 18  2  0
 18 19  1  0
 19 20  2  0
  2 21  1  0
  7 22  1  0
  8 23  1  0
  8 24  1  0
  8 25  1  0
 10 26  1  0
 11 27  1  0
 12 28  1  0
 13 29  1  0
 14 30  1  0
 16 31  1  0
 17 32  1  0
 19 33  1  0
 20 34  1  0
 35 36  1  0
 36 37  1  0
 37 38  1  0
 38 39  1  0
 39 40  1  0
 40 41  1  0
 41 42  1  0
 42 43  1  0
 43 38  1  0
 36 44  1  0
 36 45  1  0
 37 46  1  0
 37 47  1  0
 39 48  1  0
 39 49  1  0
 40 50  1  0
 40 51  1  0
 41 52  1  0
 41 53  1  0
 42 54  1  0
 42 55  1  0
 43 56  1  0
 43 57  1  0
 18 35  1  0
M  END
>  <attachment_point>  (172) 
32

>  <score>  (172) 
<NA>

$$$$
4djw
     RDKit          3D

 43 45  0  0  0  0  0  0  0  0999 V2000
   22.4950   11.8750   22.5810 C   0  0  0  0  0  0  0  0  0  0  0  0
   22.5380    9.4930   22.4640 N   0  0  0  0  0  0  0  0  0  0  0  0
   22.3600   13.0630   22.3480 O   0  0  0  0  0  0  0  0  0  0  0  0
   22.3390   10.6680   21.5610 C   0  0  0  0  0  0  0  0  0  0  0  0
   22.7860   11.3350   23.8120 N   0  0  0  0  0  0  0  0  0  0  0  0
   22.7800    9.9140   23.7010 C   0  0  0  0  0  0  0  0  0  0  0  0
   22.9970    9.1110   24.7490 N   0  0  0  0  0  0  0  0  0  0  0  0
   23.0220   12.1410   25.0180 C   0  0  0  0  0  0  0  0  0  0  0  0
   20.9020   10.6270   21.0050 C   0  0  0  0  0  0  0  0  0  0  0  0
   20.2720    9.4140   20.7470 C   0  0  0  0  0  0  0  0  0  0  0  0
   18.9690    9.3760   20.2600 C   0  0  0  0  0  0  0  0  0  0  0  0
   18.2800   10.5440   20.0210 C   0  0  0  0  0  0  0  0  0  0  0  0
   18.8920   11.7530   20.2590 C   0  0  0  0  0  0  0  0  0  0  0  0
   20.1950   11.7970   20.7440 C   0  0  0  0  0  0  0  0  0  0  0  0
   23.4880   10.6920   20.5300 C   0  0  0  0  0  0  0  0  0  0  0  0
   23.2110   10.7890   19.1730 C   0  0  0  0  0  0  0  0  0  0  0  0
   24.2350   10.8650   18.2430 C   0  0  0  0  0  0  0  0  0  0  0  0
   25.5500   10.8410   18.6560 C   0  0  0  0  0  0  0  0  0  0  0  0
   25.8710   10.7460   20.0070 C   0  0  0  0  0  0  0  0  0  0  0  0
   24.8260   10.6610   20.9430 C   0  0  0  0  0  0  0  0  0  0  0  0
    0.0000    0.0000    0.0000 H   0  0  0  0  0  0  0  0  0  0  0  0
    0.0000    0.0000    0.0000 H   0  0  0  0  0  0  0  0  0  0  0  0
    0.0000    0.0000    0.0000 H   0  0  0  0  0  0  0  0  0  0  0  0
    0.0000    0.0000    0.0000 H   0  0  0  0  0  0  0  0  0  0  0  0
    0.0000    0.0000    0.0000 H   0  0  0  0  0  0  0  0  0  0  0  0
    0.0000    0.0000    0.0000 H   0  0  0  0  0  0  0  0  0  0  0  0
    0.0000    0.0000    0.0000 H   0  0  0  0  0  0  0  0  0  0  0  0
    0.0000    0.0000    0.0000 H   0  0  0  0  0  0  0  0  0  0  0  0
    0.0000    0.0000    0.0000 H   0  0  0  0  0  0  0  0  0  0  0  0
    0.0000    0.0000    0.0000 H   0  0  0  0  0  0  0  0  0  0  0  0
    0.0000    0.0000    0.0000 H   0  0  0  0  0  0  0  0  0  0  0  0
    0.0000    0.0000    0.0000 H   0  0  0  0  0  0  0  0  0  0  0  0
    0.0000    0.0000    0.0000 H   0  0  0  0  0  0  0  0  0  0  0  0
    0.0000    0.0000    0.0000 H   0  0  0  0  0  0  0  0  0  0  0  0
   12.4726    5.2922    9.1072 C   0  0  0  0  0  0  0  0  0  0  0  0
   12.3533    3.8315    8.9809 N   0  0  0  0  0  0  0  0  0  0  0  0
   12.1763    3.2552   10.3027 C   0  0  0  0  0  0  0  0  0  0  0  0
   12.3664    5.6778    8.0682 H   0  0  0  0  0  0  0  0  0  0  0  0
   11.5127    5.5784    9.6278 H   0  0  0  0  0  0  0  0  0  0  0  0
   13.1726    3.4468    8.4740 H   0  0  0  0  0  0  0  0  0  0  0  0
   13.0458    2.6178   10.5250 H   0  0  0  0  0  0  0  0  0  0  0  0
   11.2602    2.6422   10.3820 H   0  0  0  0  0  0  0  0  0  0  0  0
   12.0972    4.0751   11.0583 H   0  0  0  0  0  0  0  0  0  0  0  0
  1  3  2  0
  1  4  1  0
  1  5  1  0
  2  4  1  0
  2  6  1  0
  4  9  1  0
  4 15  1  0
  5  6  1  0
  5  8  1  0
  6  7  2  3
  9 10  2  0
  9 14  1  0
 10 11  1  0
 11 12  2  0
 12 13  1  0
 13 14  2  0
 15 16  2  0
 15 20  1  0
 16 17  1  0
 17 18  2  0
 18 19  1  0
 19 20  2  0
  2 21  1  0
  7 22  1  0
  8 23  1  0
  8 24  1  0
  8 25  1  0
 10 26  1  0
 11 27  1  0
 12 28  1  0
 13 29  1  0
 14 30  1  0
 16 31  1  0
 17 32  1  0
 19 33  1  0
 20 34  1  0
 35 36  1  0
 36 37  1  0
 35 38  1  0
 35 39  1  0
 36 40  1  0
 37 41  1  0
 37 42  1  0
 37 43  1  0
 18 35  1  0
M  END
>  <attachment_point>  (173) 
32

>  <score>  (173) 
<NA>

$$$$
4djw
     RDKit          3D

 50 53  0  0  0  0  0  0  0  0999 V2000
   22.4950   11.8750   22.5810 C   0  0  0  0  0  0  0  0  0  0  0  0
   22.5380    9.4930   22.4640 N   0  0  0  0  0  0  0  0  0  0  0  0
   22.3600   13.0630   22.3480 O   0  0  0  0  0  0  0  0  0  0  0  0
   22.3390   10.6680   21.5610 C   0  0  0  0  0  0  0  0  0  0  0  0
   22.7860   11.3350   23.8120 N   0  0  0  0  0  0  0  0  0  0  0  0
   22.7800    9.9140   23.7010 C   0  0  0  0  0  0  0  0  0  0  0  0
   22.9970    9.1110   24.7490 N   0  0  0  0  0  0  0  0  0  0  0  0
   23.0220   12.1410   25.0180 C   0  0  0  0  0  0  0  0  0  0  0  0
   20.9020   10.6270   21.0050 C   0  0  0  0  0  0  0  0  0  0  0  0
   20.2720    9.4140   20.7470 C   0  0  0  0  0  0  0  0  0  0  0  0
   18.9690    9.3760   20.2600 C   0  0  0  0  0  0  0  0  0  0  0  0
   18.2800   10.5440   20.0210 C   0  0  0  0  0  0  0  0  0  0  0  0
   18.8920   11.7530   20.2590 C   0  0  0  0  0  0  0  0  0  0  0  0
   20.1950   11.7970   20.7440 C   0  0  0  0  0  0  0  0  0  0  0  0
   23.4880   10.6920   20.5300 C   0  0  0  0  0  0  0  0  0  0  0  0
   23.2110   10.7890   19.1730 C   0  0  0  0  0  0  0  0  0  0  0  0
   24.2350   10.8650   18.2430 C   0  0  0  0  0  0  0  0  0  0  0  0
   25.5500   10.8410   18.6560 C   0  0  0  0  0  0  0  0  0  0  0  0
   25.8710   10.7460   20.0070 C   0  0  0  0  0  0  0  0  0  0  0  0
   24.8260   10.6610   20.9430 C   0  0  0  0  0  0  0  0  0  0  0  0
    0.0000    0.0000    0.0000 H   0  0  0  0  0  0  0  0  0  0  0  0
    0.0000    0.0000    0.0000 H   0  0  0  0  0  0  0  0  0  0  0  0
    0.0000    0.0000    0.0000 H   0  0  0  0  0  0  0  0  0  0  0  0
    0.0000    0.0000    0.0000 H   0  0  0  0  0  0  0  0  0  0  0  0
    0.0000    0.0000    0.0000 H   0  0  0  0  0  0  0  0  0  0  0  0
    0.0000    0.0000    0.0000 H   0  0  0  0  0  0  0  0  0  0  0  0
    0.0000    0.0000    0.0000 H   0  0  0  0  0  0  0  0  0  0  0  0
    0.0000    0.0000    0.0000 H   0  0  0  0  0  0  0  0  0  0  0  0
    0.0000    0.0000    0.0000 H   0  0  0  0  0  0  0  0  0  0  0  0
    0.0000    0.0000    0.0000 H   0  0  0  0  0  0  0  0  0  0  0  0
    0.0000    0.0000    0.0000 H   0  0  0  0  0  0  0  0  0  0  0  0
    0.0000    0.0000    0.0000 H   0  0  0  0  0  0  0  0  0  0  0  0
    0.0000    0.0000    0.0000 H   0  0  0  0  0  0  0  0  0  0  0  0
    0.0000    0.0000    0.0000 H   0  0  0  0  0  0  0  0  0  0  0  0
   12.4326    5.2752    9.0780 C   0  0  0  0  0  0  0  0  0  0  0  0
   11.2314    5.9122    9.1199 C   0  0  0  0  0  0  0  0  0  0  0  0
   10.1319    5.5155    8.3729 C   0  0  0  0  0  0  0  0  0  0  0  0
   10.3139    4.4030    7.5521 C   0  0  0  0  0  0  0  0  0  0  0  0
    9.0010    3.7967    6.5539 S   0  0  0  0  0  6  0  0  0  0  0  0
    9.0565    4.5780    5.0164 N   0  0  0  0  0  0  0  0  0  0  0  0
    9.2083    2.3407    6.3580 O   0  0  0  0  0  0  0  0  0  0  0  0
    7.6618    4.0279    7.2338 O   0  0  0  0  0  0  0  0  0  0  0  0
   11.5283    3.7516    7.5039 C   0  0  0  0  0  0  0  0  0  0  0  0
   12.6055    4.1836    8.2705 C   0  0  0  0  0  0  0  0  0  0  0  0
   11.0991    6.7805    9.7643 H   0  0  0  0  0  0  0  0  0  0  0  0
    9.1840    6.0014    8.3926 H   0  0  0  0  0  0  0  0  0  0  0  0
    8.4758    4.0466    4.3388 H   0  0  0  0  0  0  0  0  0  0  0  0
    8.7669    5.5855    5.1083 H   0  0  0  0  0  0  0  0  0  0  0  0
   11.6734    2.8785    6.8607 H   0  0  0  0  0  0  0  0  0  0  0  0
   13.5316    3.6336    8.1909 H   0  0  0  0  0  0  0  0  0  0  0  0
  1  3  2  0
  1  4  1  0
  1  5  1  0
  2  4  1  0
  2  6  1  0
  4  9  1  0
  4 15  1  0
  5  6  1  0
  5  8  1  0
  6  7  2  3
  9 10  2  0
  9 14  1  0
 10 11  1  0
 11 12  2  0
 12 13  1  0
 13 14  2  0
 15 16  2  0
 15 20  1  0
 16 17  1  0
 17 18  2  0
 18 19  1  0
 19 20  2  0
  2 21  1  0
  7 22  1  0
  8 23  1  0
  8 24  1  0
  8 25  1  0
 10 26  1  0
 11 27  1  0
 12 28  1  0
 13 29  1  0
 14 30  1  0
 16 31  1  0
 17 32  1  0
 19 33  1  0
 20 34  1  0
 35 36  2  0
 36 37  1  0
 37 38  2  0
 38 39  1  0
 39 40  1  0
 39 41  2  0
 39 42  2  0
 38 43  1  0
 43 44  2  0
 44 35  1  0
 36 45  1  0
 37 46  1  0
 40 47  1  0
 40 48  1  0
 43 49  1  0
 44 50  1  0
 18 35  1  0
M  END
>  <attachment_point>  (174) 
32

>  <score>  (174) 
<NA>

$$$$
4djw
     RDKit          3D

 53 56  0  0  0  0  0  0  0  0999 V2000
   22.4950   11.8750   22.5810 C   0  0  0  0  0  0  0  0  0  0  0  0
   22.5380    9.4930   22.4640 N   0  0  0  0  0  0  0  0  0  0  0  0
   22.3600   13.0630   22.3480 O   0  0  0  0  0  0  0  0  0  0  0  0
   22.3390   10.6680   21.5610 C   0  0  0  0  0  0  0  0  0  0  0  0
   22.7860   11.3350   23.8120 N   0  0  0  0  0  0  0  0  0  0  0  0
   22.7800    9.9140   23.7010 C   0  0  0  0  0  0  0  0  0  0  0  0
   22.9970    9.1110   24.7490 N   0  0  0  0  0  0  0  0  0  0  0  0
   23.0220   12.1410   25.0180 C   0  0  0  0  0  0  0  0  0  0  0  0
   20.9020   10.6270   21.0050 C   0  0  0  0  0  0  0  0  0  0  0  0
   20.2720    9.4140   20.7470 C   0  0  0  0  0  0  0  0  0  0  0  0
   18.9690    9.3760   20.2600 C   0  0  0  0  0  0  0  0  0  0  0  0
   18.2800   10.5440   20.0210 C   0  0  0  0  0  0  0  0  0  0  0  0
   18.8920   11.7530   20.2590 C   0  0  0  0  0  0  0  0  0  0  0  0
   20.1950   11.7970   20.7440 C   0  0  0  0  0  0  0  0  0  0  0  0
   23.4880   10.6920   20.5300 C   0  0  0  0  0  0  0  0  0  0  0  0
   23.2110   10.7890   19.1730 C   0  0  0  0  0  0  0  0  0  0  0  0
   24.2350   10.8650   18.2430 C   0  0  0  0  0  0  0  0  0  0  0  0
   25.5500   10.8410   18.6560 C   0  0  0  0  0  0  0  0  0  0  0  0
   25.8710   10.7460   20.0070 C   0  0  0  0  0  0  0  0  0  0  0  0
   24.8260   10.6610   20.9430 C   0  0  0  0  0  0  0  0  0  0  0  0
    0.0000    0.0000    0.0000 H   0  0  0  0  0  0  0  0  0  0  0  0
    0.0000    0.0000    0.0000 H   0  0  0  0  0  0  0  0  0  0  0  0
    0.0000    0.0000    0.0000 H   0  0  0  0  0  0  0  0  0  0  0  0
    0.0000    0.0000    0.0000 H   0  0  0  0  0  0  0  0  0  0  0  0
    0.0000    0.0000    0.0000 H   0  0  0  0  0  0  0  0  0  0  0  0
    0.0000    0.0000    0.0000 H   0  0  0  0  0  0  0  0  0  0  0  0
    0.0000    0.0000    0.0000 H   0  0  0  0  0  0  0  0  0  0  0  0
    0.0000    0.0000    0.0000 H   0  0  0  0  0  0  0  0  0  0  0  0
    0.0000    0.0000    0.0000 H   0  0  0  0  0  0  0  0  0  0  0  0
    0.0000    0.0000    0.0000 H   0  0  0  0  0  0  0  0  0  0  0  0
    0.0000    0.0000    0.0000 H   0  0  0  0  0  0  0  0  0  0  0  0
    0.0000    0.0000    0.0000 H   0  0  0  0  0  0  0  0  0  0  0  0
    0.0000    0.0000    0.0000 H   0  0  0  0  0  0  0  0  0  0  0  0
    0.0000    0.0000    0.0000 H   0  0  0  0  0  0  0  0  0  0  0  0
   12.4416    5.2790    9.0846 C   0  0  0  0  0  0  0  0  0  0  0  0
   11.2078    5.6837    9.8525 C   0  0  0  0  0  0  0  0  0  0  0  0
   11.2379    7.1486    9.9601 N   0  0  0  0  0  0  0  0  0  0  0  0
   10.3039    7.5818   10.9813 C   0  0  0  0  0  0  0  0  0  0  0  0
    9.7396    8.8628   10.4820 C   0  0  0  0  0  0  0  0  0  0  0  0
    9.6546    8.6659    8.9823 C   0  0  0  0  0  0  0  0  0  0  0  0
   10.7524    7.7163    8.7127 C   0  0  0  0  0  0  0  0  0  0  0  0
   12.5028    4.1822    8.9327 H   0  0  0  0  0  0  0  0  0  0  0  0
   12.4904    5.8538    8.1546 H   0  0  0  0  0  0  0  0  0  0  0  0
   10.3225    5.4127    9.1913 H   0  0  0  0  0  0  0  0  0  0  0  0
   11.0199    5.1840   10.7943 H   0  0  0  0  0  0  0  0  0  0  0  0
    9.5799    6.8184   11.2888 H   0  0  0  0  0  0  0  0  0  0  0  0
   10.9295    7.7921   11.9017 H   0  0  0  0  0  0  0  0  0  0  0  0
   10.4909    9.6549   10.6403 H   0  0  0  0  0  0  0  0  0  0  0  0
    8.7568    9.0927   10.8817 H   0  0  0  0  0  0  0  0  0  0  0  0
    9.8495    9.6465    8.4796 H   0  0  0  0  0  0  0  0  0  0  0  0
    8.6832    8.2380    8.6634 H   0  0  0  0  0  0  0  0  0  0  0  0
   10.4170    6.8757    8.0348 H   0  0  0  0  0  0  0  0  0  0  0  0
   11.6111    8.1755    8.2086 H   0  0  0  0  0  0  0  0  0  0  0  0
  1  3  2  0
  1  4  1  0
  1  5  1  0
  2  4  1  0
  2  6  1  0
  4  9  1  0
  4 15  1  0
  5  6  1  0
  5  8  1  0
  6  7  2  3
  9 10  2  0
  9 14  1  0
 10 11  1  0
 11 12  2  0
 12 13  1  0
 13 14  2  0
 15 16  2  0
 15 20  1  0
 16 17  1  0
 17 18  2  0
 18 19  1  0
 19 20  2  0
  2 21  1  0
  7 22  1  0
  8 23  1  0
  8 24  1  0
  8 25  1  0
 10 26  1  0
 11 27  1  0
 12 28  1  0
 13 29  1  0
 14 30  1  0
 16 31  1  0
 17 32  1  0
 19 33  1  0
 20 34  1  0
 35 36  1  0
 36 37  1  0
 37 38  1  0
 38 39  1  0
 39 40  1  0
 40 41  1  0
 41 37  1  0
 35 42  1  0
 35 43  1  0
 36 44  1  0
 36 45  1  0
 38 46  1  0
 38 47  1  0
 39 48  1  0
 39 49  1  0
 40 50  1  0
 40 51  1  0
 41 52  1  0
 41 53  1  0
 18 35  1  0
M  END
>  <attachment_point>  (175) 
32

>  <score>  (175) 
<NA>

$$$$
4djw
     RDKit          3D

 42 45  0  0  0  0  0  0  0  0999 V2000
   22.4950   11.8750   22.5810 C   0  0  0  0  0  0  0  0  0  0  0  0
   22.5380    9.4930   22.4640 N   0  0  0  0  0  0  0  0  0  0  0  0
   22.3600   13.0630   22.3480 O   0  0  0  0  0  0  0  0  0  0  0  0
   22.3390   10.6680   21.5610 C   0  0  0  0  0  0  0  0  0  0  0  0
   22.7860   11.3350   23.8120 N   0  0  0  0  0  0  0  0  0  0  0  0
   22.7800    9.9140   23.7010 C   0  0  0  0  0  0  0  0  0  0  0  0
   22.9970    9.1110   24.7490 N   0  0  0  0  0  0  0  0  0  0  0  0
   23.0220   12.1410   25.0180 C   0  0  0  0  0  0  0  0  0  0  0  0
   20.9020   10.6270   21.0050 C   0  0  0  0  0  0  0  0  0  0  0  0
   20.2720    9.4140   20.7470 C   0  0  0  0  0  0  0  0  0  0  0  0
   18.9690    9.3760   20.2600 C   0  0  0  0  0  0  0  0  0  0  0  0
   18.2800   10.5440   20.0210 C   0  0  0  0  0  0  0  0  0  0  0  0
   18.8920   11.7530   20.2590 C   0  0  0  0  0  0  0  0  0  0  0  0
   20.1950   11.7970   20.7440 C   0  0  0  0  0  0  0  0  0  0  0  0
   23.4880   10.6920   20.5300 C   0  0  0  0  0  0  0  0  0  0  0  0
   23.2110   10.7890   19.1730 C   0  0  0  0  0  0  0  0  0  0  0  0
   24.2350   10.8650   18.2430 C   0  0  0  0  0  0  0  0  0  0  0  0
   25.5500   10.8410   18.6560 C   0  0  0  0  0  0  0  0  0  0  0  0
   25.8710   10.7460   20.0070 C   0  0  0  0  0  0  0  0  0  0  0  0
   24.8260   10.6610   20.9430 C   0  0  0  0  0  0  0  0  0  0  0  0
    0.0000    0.0000    0.0000 H   0  0  0  0  0  0  0  0  0  0  0  0
    0.0000    0.0000    0.0000 H   0  0  0  0  0  0  0  0  0  0  0  0
    0.0000    0.0000    0.0000 H   0  0  0  0  0  0  0  0  0  0  0  0
    0.0000    0.0000    0.0000 H   0  0  0  0  0  0  0  0  0  0  0  0
    0.0000    0.0000    0.0000 H   0  0  0  0  0  0  0  0  0  0  0  0
    0.0000    0.0000    0.0000 H   0  0  0  0  0  0  0  0  0  0  0  0
    0.0000    0.0000    0.0000 H   0  0  0  0  0  0  0  0  0  0  0  0
    0.0000    0.0000    0.0000 H   0  0  0  0  0  0  0  0  0  0  0  0
    0.0000    0.0000    0.0000 H   0  0  0  0  0  0  0  0  0  0  0  0
    0.0000    0.0000    0.0000 H   0  0  0  0  0  0  0  0  0  0  0  0
    0.0000    0.0000    0.0000 H   0  0  0  0  0  0  0  0  0  0  0  0
    0.0000    0.0000    0.0000 H   0  0  0  0  0  0  0  0  0  0  0  0
    0.0000    0.0000    0.0000 H   0  0  0  0  0  0  0  0  0  0  0  0
    0.0000    0.0000    0.0000 H   0  0  0  0  0  0  0  0  0  0  0  0
   12.3701    5.2487    9.0323 C   0  0  0  0  0  0  0  0  0  0  0  0
   12.1083    3.9513    8.9010 C   0  0  0  0  0  0  0  0  0  0  0  0
   10.9761    3.9068    8.0522 C   0  0  0  0  0  0  0  0  0  0  0  0
   10.6734    5.1921    7.7597 N   0  0  0  0  0  0  0  0  0  0  0  0
   11.5599    5.9845    8.3860 N   0  0  0  0  0  0  0  0  0  0  0  0
   12.5972    3.0791    9.3126 H   0  0  0  0  0  0  0  0  0  0  0  0
   10.4973    2.9945    7.7385 H   0  0  0  0  0  0  0  0  0  0  0  0
    9.9094    5.5225    7.1687 H   0  0  0  0  0  0  0  0  0  0  0  0
  1  3  2  0
  1  4  1  0
  1  5  1  0
  2  4  1  0
  2  6  1  0
  4  9  1  0
  4 15  1  0
  5  6  1  0
  5  8  1  0
  6  7  2  3
  9 10  2  0
  9 14  1  0
 10 11  1  0
 11 12  2  0
 12 13  1  0
 13 14  2  0
 15 16  2  0
 15 20  1  0
 16 17  1  0
 17 18  2  0
 18 19  1  0
 19 20  2  0
  2 21  1  0
  7 22  1  0
  8 23  1  0
  8 24  1  0
  8 25  1  0
 10 26  1  0
 11 27  1  0
 12 28  1  0
 13 29  1  0
 14 30  1  0
 16 31  1  0
 17 32  1  0
 19 33  1  0
 20 34  1  0
 35 36  1  0
 36 37  2  0
 37 38  1  0
 38 39  1  0
 39 35  2  0
 36 40  1  0
 37 41  1  0
 38 42  1  0
 18 35  1  0
M  END
>  <attachment_point>  (176) 
32

>  <score>  (176) 
<NA>

$$$$
4djw
     RDKit          3D

 60 63  0  0  0  0  0  0  0  0999 V2000
   22.4950   11.8750   22.5810 C   0  0  0  0  0  0  0  0  0  0  0  0
   22.5380    9.4930   22.4640 N   0  0  0  0  0  0  0  0  0  0  0  0
   22.3600   13.0630   22.3480 O   0  0  0  0  0  0  0  0  0  0  0  0
   22.3390   10.6680   21.5610 C   0  0  0  0  0  0  0  0  0  0  0  0
   22.7860   11.3350   23.8120 N   0  0  0  0  0  0  0  0  0  0  0  0
   22.7800    9.9140   23.7010 C   0  0  0  0  0  0  0  0  0  0  0  0
   22.9970    9.1110   24.7490 N   0  0  0  0  0  0  0  0  0  0  0  0
   23.0220   12.1410   25.0180 C   0  0  0  0  0  0  0  0  0  0  0  0
   20.9020   10.6270   21.0050 C   0  0  0  0  0  0  0  0  0  0  0  0
   20.2720    9.4140   20.7470 C   0  0  0  0  0  0  0  0  0  0  0  0
   18.9690    9.3760   20.2600 C   0  0  0  0  0  0  0  0  0  0  0  0
   18.2800   10.5440   20.0210 C   0  0  0  0  0  0  0  0  0  0  0  0
   18.8920   11.7530   20.2590 C   0  0  0  0  0  0  0  0  0  0  0  0
   20.1950   11.7970   20.7440 C   0  0  0  0  0  0  0  0  0  0  0  0
   23.4880   10.6920   20.5300 C   0  0  0  0  0  0  0  0  0  0  0  0
   23.2110   10.7890   19.1730 C   0  0  0  0  0  0  0  0  0  0  0  0
   24.2350   10.8650   18.2430 C   0  0  0  0  0  0  0  0  0  0  0  0
   25.5500   10.8410   18.6560 C   0  0  0  0  0  0  0  0  0  0  0  0
   25.8710   10.7460   20.0070 C   0  0  0  0  0  0  0  0  0  0  0  0
   24.8260   10.6610   20.9430 C   0  0  0  0  0  0  0  0  0  0  0  0
    0.0000    0.0000    0.0000 H   0  0  0  0  0  0  0  0  0  0  0  0
    0.0000    0.0000    0.0000 H   0  0  0  0  0  0  0  0  0  0  0  0
    0.0000    0.0000    0.0000 H   0  0  0  0  0  0  0  0  0  0  0  0
    0.0000    0.0000    0.0000 H   0  0  0  0  0  0  0  0  0  0  0  0
    0.0000    0.0000    0.0000 H   0  0  0  0  0  0  0  0  0  0  0  0
    0.0000    0.0000    0.0000 H   0  0  0  0  0  0  0  0  0  0  0  0
    0.0000    0.0000    0.0000 H   0  0  0  0  0  0  0  0  0  0  0  0
    0.0000    0.0000    0.0000 H   0  0  0  0  0  0  0  0  0  0  0  0
    0.0000    0.0000    0.0000 H   0  0  0  0  0  0  0  0  0  0  0  0
    0.0000    0.0000    0.0000 H   0  0  0  0  0  0  0  0  0  0  0  0
    0.0000    0.0000    0.0000 H   0  0  0  0  0  0  0  0  0  0  0  0
    0.0000    0.0000    0.0000 H   0  0  0  0  0  0  0  0  0  0  0  0
    0.0000    0.0000    0.0000 H   0  0  0  0  0  0  0  0  0  0  0  0
    0.0000    0.0000    0.0000 H   0  0  0  0  0  0  0  0  0  0  0  0
   12.4463    5.2810    9.0880 O   0  0  0  0  0  0  0  0  0  0  0  0
   13.1264    4.5761    8.0875 C   0  0  0  0  0  0  0  0  0  0  0  0
   12.1487    3.8394    7.1801 C   0  0  0  0  0  0  0  0  0  0  0  0
   12.9949    3.1204    6.1463 C   0  0  0  0  0  0  0  0  0  0  0  0
   12.1981    2.3736    5.2139 N   0  0  0  0  0  0  0  0  0  0  0  0
   11.4699    3.2145    4.3678 C   0  0  0  0  0  0  0  0  0  0  0  0
   12.0281    3.2135    2.9491 C   0  0  0  0  0  0  0  0  0  0  0  0
   11.8192    1.8073    2.4498 C   0  0  0  0  0  0  0  0  0  0  0  0
   12.5917    0.8600    3.2908 C   0  0  0  0  0  0  0  0  0  0  0  0
   12.9278    1.3042    4.6689 C   0  0  0  0  0  0  0  0  0  0  0  0
   13.7910    3.8275    8.5234 H   0  0  0  0  0  0  0  0  0  0  0  0
   13.6562    5.3049    7.4352 H   0  0  0  0  0  0  0  0  0  0  0  0
   11.3876    4.4877    6.7363 H   0  0  0  0  0  0  0  0  0  0  0  0
   11.6366    3.0778    7.8445 H   0  0  0  0  0  0  0  0  0  0  0  0
   13.7361    2.4920    6.6989 H   0  0  0  0  0  0  0  0  0  0  0  0
   13.5759    3.8964    5.5590 H   0  0  0  0  0  0  0  0  0  0  0  0
   11.3866    4.2578    4.6911 H   0  0  0  0  0  0  0  0  0  0  0  0
   10.4194    2.8123    4.2432 H   0  0  0  0  0  0  0  0  0  0  0  0
   11.4236    3.8832    2.3354 H   0  0  0  0  0  0  0  0  0  0  0  0
   13.1165    3.4284    2.9528 H   0  0  0  0  0  0  0  0  0  0  0  0
   12.1433    1.7469    1.3926 H   0  0  0  0  0  0  0  0  0  0  0  0
   10.7312    1.5599    2.4826 H   0  0  0  0  0  0  0  0  0  0  0  0
   12.0206   -0.0954    3.2938 H   0  0  0  0  0  0  0  0  0  0  0  0
   13.5378    0.6195    2.7331 H   0  0  0  0  0  0  0  0  0  0  0  0
   12.7525    0.4157    5.3490 H   0  0  0  0  0  0  0  0  0  0  0  0
   14.0276    1.4683    4.7580 H   0  0  0  0  0  0  0  0  0  0  0  0
  1  3  2  0
  1  4  1  0
  1  5  1  0
  2  4  1  0
  2  6  1  0
  4  9  1  0
  4 15  1  0
  5  6  1  0
  5  8  1  0
  6  7  2  3
  9 10  2  0
  9 14  1  0
 10 11  1  0
 11 12  2  0
 12 13  1  0
 13 14  2  0
 15 16  2  0
 15 20  1  0
 16 17  1  0
 17 18  2  0
 18 19  1  0
 19 20  2  0
  2 21  1  0
  7 22  1  0
  8 23  1  0
  8 24  1  0
  8 25  1  0
 10 26  1  0
 11 27  1  0
 12 28  1  0
 13 29  1  0
 14 30  1  0
 16 31  1  0
 17 32  1  0
 19 33  1  0
 20 34  1  0
 35 36  1  0
 36 37  1  0
 37 38  1  0
 38 39  1  0
 39 40  1  0
 40 41  1  0
 41 42  1  0
 42 43  1  0
 43 44  1  0
 44 39  1  0
 36 45  1  0
 36 46  1  0
 37 47  1  0
 37 48  1  0
 38 49  1  0
 38 50  1  0
 40 51  1  0
 40 52  1  0
 41 53  1  0
 41 54  1  0
 42 55  1  0
 42 56  1  0
 43 57  1  0
 43 58  1  0
 44 59  1  0
 44 60  1  0
 18 35  1  0
M  END
>  <attachment_point>  (177) 
32

>  <score>  (177) 
<NA>

$$$$
4djw
     RDKit          3D

 51 53  0  0  0  0  0  0  0  0999 V2000
   22.4950   11.8750   22.5810 C   0  0  0  0  0  0  0  0  0  0  0  0
   22.5380    9.4930   22.4640 N   0  0  0  0  0  0  0  0  0  0  0  0
   22.3600   13.0630   22.3480 O   0  0  0  0  0  0  0  0  0  0  0  0
   22.3390   10.6680   21.5610 C   0  0  0  0  0  0  0  0  0  0  0  0
   22.7860   11.3350   23.8120 N   0  0  0  0  0  0  0  0  0  0  0  0
   22.7800    9.9140   23.7010 C   0  0  0  0  0  0  0  0  0  0  0  0
   22.9970    9.1110   24.7490 N   0  0  0  0  0  0  0  0  0  0  0  0
   23.0220   12.1410   25.0180 C   0  0  0  0  0  0  0  0  0  0  0  0
   20.9020   10.6270   21.0050 C   0  0  0  0  0  0  0  0  0  0  0  0
   20.2720    9.4140   20.7470 C   0  0  0  0  0  0  0  0  0  0  0  0
   18.9690    9.3760   20.2600 C   0  0  0  0  0  0  0  0  0  0  0  0
   18.2800   10.5440   20.0210 C   0  0  0  0  0  0  0  0  0  0  0  0
   18.8920   11.7530   20.2590 C   0  0  0  0  0  0  0  0  0  0  0  0
   20.1950   11.7970   20.7440 C   0  0  0  0  0  0  0  0  0  0  0  0
   23.4880   10.6920   20.5300 C   0  0  0  0  0  0  0  0  0  0  0  0
   23.2110   10.7890   19.1730 C   0  0  0  0  0  0  0  0  0  0  0  0
   24.2350   10.8650   18.2430 C   0  0  0  0  0  0  0  0  0  0  0  0
   25.5500   10.8410   18.6560 C   0  0  0  0  0  0  0  0  0  0  0  0
   25.8710   10.7460   20.0070 C   0  0  0  0  0  0  0  0  0  0  0  0
   24.8260   10.6610   20.9430 C   0  0  0  0  0  0  0  0  0  0  0  0
    0.0000    0.0000    0.0000 H   0  0  0  0  0  0  0  0  0  0  0  0
    0.0000    0.0000    0.0000 H   0  0  0  0  0  0  0  0  0  0  0  0
    0.0000    0.0000    0.0000 H   0  0  0  0  0  0  0  0  0  0  0  0
    0.0000    0.0000    0.0000 H   0  0  0  0  0  0  0  0  0  0  0  0
    0.0000    0.0000    0.0000 H   0  0  0  0  0  0  0  0  0  0  0  0
    0.0000    0.0000    0.0000 H   0  0  0  0  0  0  0  0  0  0  0  0
    0.0000    0.0000    0.0000 H   0  0  0  0  0  0  0  0  0  0  0  0
    0.0000    0.0000    0.0000 H   0  0  0  0  0  0  0  0  0  0  0  0
    0.0000    0.0000    0.0000 H   0  0  0  0  0  0  0  0  0  0  0  0
    0.0000    0.0000    0.0000 H   0  0  0  0  0  0  0  0  0  0  0  0
    0.0000    0.0000    0.0000 H   0  0  0  0  0  0  0  0  0  0  0  0
    0.0000    0.0000    0.0000 H   0  0  0  0  0  0  0  0  0  0  0  0
    0.0000    0.0000    0.0000 H   0  0  0  0  0  0  0  0  0  0  0  0
    0.0000    0.0000    0.0000 H   0  0  0  0  0  0  0  0  0  0  0  0
   12.4200    5.2699    9.0688 C   0  0  0  0  0  0  0  0  0  0  0  0
   12.7624    4.5275    8.1359 O   0  0  0  0  0  0  0  0  0  0  0  0
   11.1177    5.6665    9.3830 N   0  0  0  0  0  0  0  0  0  0  0  0
   10.0278    5.1887    8.5668 C   0  0  0  0  0  0  0  0  0  0  0  0
    9.7194    6.0862    7.4152 C   0  0  0  0  0  0  0  0  0  0  0  0
   10.8720    6.5257   10.4875 C   0  0  0  0  0  0  0  0  0  0  0  0
   10.9029    7.9960   10.1338 C   0  0  0  0  0  0  0  0  0  0  0  0
    9.1252    5.0197    9.2172 H   0  0  0  0  0  0  0  0  0  0  0  0
   10.2662    4.1686    8.1617 H   0  0  0  0  0  0  0  0  0  0  0  0
    8.9482    6.8495    7.6540 H   0  0  0  0  0  0  0  0  0  0  0  0
   10.6887    6.5672    7.0980 H   0  0  0  0  0  0  0  0  0  0  0  0
    9.3532    5.4837    6.5749 H   0  0  0  0  0  0  0  0  0  0  0  0
    9.8498    6.3226   10.8922 H   0  0  0  0  0  0  0  0  0  0  0  0
   11.6310    6.3236   11.2666 H   0  0  0  0  0  0  0  0  0  0  0  0
   11.8997    8.3499    9.8567 H   0  0  0  0  0  0  0  0  0  0  0  0
   10.5351    8.5484   11.0261 H   0  0  0  0  0  0  0  0  0  0  0  0
   10.1967    8.2189    9.3128 H   0  0  0  0  0  0  0  0  0  0  0  0
  1  3  2  0
  1  4  1  0
  1  5  1  0
  2  4  1  0
  2  6  1  0
  4  9  1  0
  4 15  1  0
  5  6  1  0
  5  8  1  0
  6  7  2  3
  9 10  2  0
  9 14  1  0
 10 11  1  0
 11 12  2  0
 12 13  1  0
 13 14  2  0
 15 16  2  0
 15 20  1  0
 16 17  1  0
 17 18  2  0
 18 19  1  0
 19 20  2  0
  2 21  1  0
  7 22  1  0
  8 23  1  0
  8 24  1  0
  8 25  1  0
 10 26  1  0
 11 27  1  0
 12 28  1  0
 13 29  1  0
 14 30  1  0
 16 31  1  0
 17 32  1  0
 19 33  1  0
 20 34  1  0
 35 36  2  0
 35 37  1  0
 37 38  1  0
 38 39  1  0
 37 40  1  0
 40 41  1  0
 38 42  1  0
 38 43  1  0
 39 44  1  0
 39 45  1  0
 39 46  1  0
 40 47  1  0
 40 48  1  0
 41 49  1  0
 41 50  1  0
 41 51  1  0
 18 35  1  0
M  END
>  <attachment_point>  (178) 
32

>  <score>  (178) 
<NA>

$$$$
4djw
     RDKit          3D

 50 53  0  0  0  0  0  0  0  0999 V2000
   22.4950   11.8750   22.5810 C   0  0  0  0  0  0  0  0  0  0  0  0
   22.5380    9.4930   22.4640 N   0  0  0  0  0  0  0  0  0  0  0  0
   22.3600   13.0630   22.3480 O   0  0  0  0  0  0  0  0  0  0  0  0
   22.3390   10.6680   21.5610 C   0  0  0  0  0  0  0  0  0  0  0  0
   22.7860   11.3350   23.8120 N   0  0  0  0  0  0  0  0  0  0  0  0
   22.7800    9.9140   23.7010 C   0  0  0  0  0  0  0  0  0  0  0  0
   22.9970    9.1110   24.7490 N   0  0  0  0  0  0  0  0  0  0  0  0
   23.0220   12.1410   25.0180 C   0  0  0  0  0  0  0  0  0  0  0  0
   20.9020   10.6270   21.0050 C   0  0  0  0  0  0  0  0  0  0  0  0
   20.2720    9.4140   20.7470 C   0  0  0  0  0  0  0  0  0  0  0  0
   18.9690    9.3760   20.2600 C   0  0  0  0  0  0  0  0  0  0  0  0
   18.2800   10.5440   20.0210 C   0  0  0  0  0  0  0  0  0  0  0  0
   18.8920   11.7530   20.2590 C   0  0  0  0  0  0  0  0  0  0  0  0
   20.1950   11.7970   20.7440 C   0  0  0  0  0  0  0  0  0  0  0  0
   23.4880   10.6920   20.5300 C   0  0  0  0  0  0  0  0  0  0  0  0
   23.2110   10.7890   19.1730 C   0  0  0  0  0  0  0  0  0  0  0  0
   24.2350   10.8650   18.2430 C   0  0  0  0  0  0  0  0  0  0  0  0
   25.5500   10.8410   18.6560 C   0  0  0  0  0  0  0  0  0  0  0  0
   25.8710   10.7460   20.0070 C   0  0  0  0  0  0  0  0  0  0  0  0
   24.8260   10.6610   20.9430 C   0  0  0  0  0  0  0  0  0  0  0  0
    0.0000    0.0000    0.0000 H   0  0  0  0  0  0  0  0  0  0  0  0
    0.0000    0.0000    0.0000 H   0  0  0  0  0  0  0  0  0  0  0  0
    0.0000    0.0000    0.0000 H   0  0  0  0  0  0  0  0  0  0  0  0
    0.0000    0.0000    0.0000 H   0  0  0  0  0  0  0  0  0  0  0  0
    0.0000    0.0000    0.0000 H   0  0  0  0  0  0  0  0  0  0  0  0
    0.0000    0.0000    0.0000 H   0  0  0  0  0  0  0  0  0  0  0  0
    0.0000    0.0000    0.0000 H   0  0  0  0  0  0  0  0  0  0  0  0
    0.0000    0.0000    0.0000 H   0  0  0  0  0  0  0  0  0  0  0  0
    0.0000    0.0000    0.0000 H   0  0  0  0  0  0  0  0  0  0  0  0
    0.0000    0.0000    0.0000 H   0  0  0  0  0  0  0  0  0  0  0  0
    0.0000    0.0000    0.0000 H   0  0  0  0  0  0  0  0  0  0  0  0
    0.0000    0.0000    0.0000 H   0  0  0  0  0  0  0  0  0  0  0  0
    0.0000    0.0000    0.0000 H   0  0  0  0  0  0  0  0  0  0  0  0
    0.0000    0.0000    0.0000 H   0  0  0  0  0  0  0  0  0  0  0  0
   12.4303    5.2742    9.0763 C   0  0  0  0  0  0  0  0  0  0  0  0
   11.1431    5.2889    9.5416 C   0  0  0  0  0  0  0  0  0  0  0  0
   10.1549    4.8338    8.7301 C   0  0  0  0  0  0  0  0  0  0  0  0
   10.3739    4.3544    7.4556 C   0  0  0  0  0  0  0  0  0  0  0  0
    9.3300    3.8641    6.5739 C   0  0  0  0  0  0  0  0  0  0  0  0
    7.9287    3.8998    7.1300 C   0  0  0  0  0  0  0  0  0  0  0  0
    9.5338    3.4345    5.4299 O   0  0  0  0  0  0  0  0  0  0  0  0
   11.6719    4.3459    7.0019 C   0  0  0  0  0  0  0  0  0  0  0  0
   12.7161    4.8059    7.8069 C   0  0  0  0  0  0  0  0  0  0  0  0
   10.9474    5.6558   10.5266 H   0  0  0  0  0  0  0  0  0  0  0  0
    9.1252    4.8328    9.0705 H   0  0  0  0  0  0  0  0  0  0  0  0
    8.0106    3.3817    8.1267 H   0  0  0  0  0  0  0  0  0  0  0  0
    7.7259    4.9642    7.3644 H   0  0  0  0  0  0  0  0  0  0  0  0
    7.2079    3.4322    6.4625 H   0  0  0  0  0  0  0  0  0  0  0  0
   11.8809    3.9815    6.0189 H   0  0  0  0  0  0  0  0  0  0  0  0
   13.7253    4.7866    7.4222 H   0  0  0  0  0  0  0  0  0  0  0  0
  1  3  2  0
  1  4  1  0
  1  5  1  0
  2  4  1  0
  2  6  1  0
  4  9  1  0
  4 15  1  0
  5  6  1  0
  5  8  1  0
  6  7  2  3
  9 10  2  0
  9 14  1  0
 10 11  1  0
 11 12  2  0
 12 13  1  0
 13 14  2  0
 15 16  2  0
 15 20  1  0
 16 17  1  0
 17 18  2  0
 18 19  1  0
 19 20  2  0
  2 21  1  0
  7 22  1  0
  8 23  1  0
  8 24  1  0
  8 25  1  0
 10 26  1  0
 11 27  1  0
 12 28  1  0
 13 29  1  0
 14 30  1  0
 16 31  1  0
 17 32  1  0
 19 33  1  0
 20 34  1  0
 35 36  2  0
 36 37  1  0
 37 38  2  0
 38 39  1  0
 39 40  1  0
 39 41  2  0
 38 42  1  0
 42 43  2  0
 43 35  1  0
 36 44  1  0
 37 45  1  0
 40 46  1  0
 40 47  1  0
 40 48  1  0
 42 49  1  0
 43 50  1  0
 18 35  1  0
M  END
>  <attachment_point>  (179) 
32

>  <score>  (179) 
<NA>

$$$$
4djw
     RDKit          3D

 47 51  0  0  0  0  0  0  0  0999 V2000
   22.4950   11.8750   22.5810 C   0  0  0  0  0  0  0  0  0  0  0  0
   22.5380    9.4930   22.4640 N   0  0  0  0  0  0  0  0  0  0  0  0
   22.3600   13.0630   22.3480 O   0  0  0  0  0  0  0  0  0  0  0  0
   22.3390   10.6680   21.5610 C   0  0  0  0  0  0  0  0  0  0  0  0
   22.7860   11.3350   23.8120 N   0  0  0  0  0  0  0  0  0  0  0  0
   22.7800    9.9140   23.7010 C   0  0  0  0  0  0  0  0  0  0  0  0
   22.9970    9.1110   24.7490 N   0  0  0  0  0  0  0  0  0  0  0  0
   23.0220   12.1410   25.0180 C   0  0  0  0  0  0  0  0  0  0  0  0
   20.9020   10.6270   21.0050 C   0  0  0  0  0  0  0  0  0  0  0  0
   20.2720    9.4140   20.7470 C   0  0  0  0  0  0  0  0  0  0  0  0
   18.9690    9.3760   20.2600 C   0  0  0  0  0  0  0  0  0  0  0  0
   18.2800   10.5440   20.0210 C   0  0  0  0  0  0  0  0  0  0  0  0
   18.8920   11.7530   20.2590 C   0  0  0  0  0  0  0  0  0  0  0  0
   20.1950   11.7970   20.7440 C   0  0  0  0  0  0  0  0  0  0  0  0
   23.4880   10.6920   20.5300 C   0  0  0  0  0  0  0  0  0  0  0  0
   23.2110   10.7890   19.1730 C   0  0  0  0  0  0  0  0  0  0  0  0
   24.2350   10.8650   18.2430 C   0  0  0  0  0  0  0  0  0  0  0  0
   25.5500   10.8410   18.6560 C   0  0  0  0  0  0  0  0  0  0  0  0
   25.8710   10.7460   20.0070 C   0  0  0  0  0  0  0  0  0  0  0  0
   24.8260   10.6610   20.9430 C   0  0  0  0  0  0  0  0  0  0  0  0
    0.0000    0.0000    0.0000 H   0  0  0  0  0  0  0  0  0  0  0  0
    0.0000    0.0000    0.0000 H   0  0  0  0  0  0  0  0  0  0  0  0
    0.0000    0.0000    0.0000 H   0  0  0  0  0  0  0  0  0  0  0  0
    0.0000    0.0000    0.0000 H   0  0  0  0  0  0  0  0  0  0  0  0
    0.0000    0.0000    0.0000 H   0  0  0  0  0  0  0  0  0  0  0  0
    0.0000    0.0000    0.0000 H   0  0  0  0  0  0  0  0  0  0  0  0
    0.0000    0.0000    0.0000 H   0  0  0  0  0  0  0  0  0  0  0  0
    0.0000    0.0000    0.0000 H   0  0  0  0  0  0  0  0  0  0  0  0
    0.0000    0.0000    0.0000 H   0  0  0  0  0  0  0  0  0  0  0  0
    0.0000    0.0000    0.0000 H   0  0  0  0  0  0  0  0  0  0  0  0
    0.0000    0.0000    0.0000 H   0  0  0  0  0  0  0  0  0  0  0  0
    0.0000    0.0000    0.0000 H   0  0  0  0  0  0  0  0  0  0  0  0
    0.0000    0.0000    0.0000 H   0  0  0  0  0  0  0  0  0  0  0  0
    0.0000    0.0000    0.0000 H   0  0  0  0  0  0  0  0  0  0  0  0
   12.4348    5.2762    9.0796 C   0  0  0  0  0  0  0  0  0  0  0  0
   11.2840    4.7281    9.5079 N   0  0  0  0  0  0  0  0  0  0  0  0
   10.5521    4.4437    8.4200 C   0  0  0  0  0  0  0  0  0  0  0  0
    9.3055    3.8827    8.1934 C   0  0  0  0  0  0  0  0  0  0  0  0
    8.7847    3.7037    6.9272 C   0  0  0  0  0  0  0  0  0  0  0  0
    9.5592    4.1092    5.8611 C   0  0  0  0  0  0  0  0  0  0  0  0
   10.8092    4.6724    6.0771 C   0  0  0  0  0  0  0  0  0  0  0  0
   11.3191    4.8463    7.3464 C   0  0  0  0  0  0  0  0  0  0  0  0
   12.4722    5.3548    7.7802 O   0  0  0  0  0  0  0  0  0  0  0  0
    8.7160    3.5723    9.0386 H   0  0  0  0  0  0  0  0  0  0  0  0
    7.7996    3.2578    6.7994 H   0  0  0  0  0  0  0  0  0  0  0  0
    9.1551    3.9709    4.8658 H   0  0  0  0  0  0  0  0  0  0  0  0
   11.3976    4.9827    5.2222 H   0  0  0  0  0  0  0  0  0  0  0  0
  1  3  2  0
  1  4  1  0
  1  5  1  0
  2  4  1  0
  2  6  1  0
  4  9  1  0
  4 15  1  0
  5  6  1  0
  5  8  1  0
  6  7  2  3
  9 10  2  0
  9 14  1  0
 10 11  1  0
 11 12  2  0
 12 13  1  0
 13 14  2  0
 15 16  2  0
 15 20  1  0
 16 17  1  0
 17 18  2  0
 18 19  1  0
 19 20  2  0
  2 21  1  0
  7 22  1  0
  8 23  1  0
  8 24  1  0
  8 25  1  0
 10 26  1  0
 11 27  1  0
 12 28  1  0
 13 29  1  0
 14 30  1  0
 16 31  1  0
 17 32  1  0
 19 33  1  0
 20 34  1  0
 35 36  2  0
 36 37  1  0
 37 38  2  0
 38 39  1  0
 39 40  2  0
 40 41  1  0
 41 42  2  0
 42 43  1  0
 43 35  1  0
 42 37  1  0
 38 44  1  0
 39 45  1  0
 40 46  1  0
 41 47  1  0
 18 35  1  0
M  END
>  <attachment_point>  (180) 
32

>  <score>  (180) 
<NA>

$$$$
4djw
     RDKit          3D

 54 57  0  0  0  0  0  0  0  0999 V2000
   22.4950   11.8750   22.5810 C   0  0  0  0  0  0  0  0  0  0  0  0
   22.5380    9.4930   22.4640 N   0  0  0  0  0  0  0  0  0  0  0  0
   22.3600   13.0630   22.3480 O   0  0  0  0  0  0  0  0  0  0  0  0
   22.3390   10.6680   21.5610 C   0  0  0  0  0  0  0  0  0  0  0  0
   22.7860   11.3350   23.8120 N   0  0  0  0  0  0  0  0  0  0  0  0
   22.7800    9.9140   23.7010 C   0  0  0  0  0  0  0  0  0  0  0  0
   22.9970    9.1110   24.7490 N   0  0  0  0  0  0  0  0  0  0  0  0
   23.0220   12.1410   25.0180 C   0  0  0  0  0  0  0  0  0  0  0  0
   20.9020   10.6270   21.0050 C   0  0  0  0  0  0  0  0  0  0  0  0
   20.2720    9.4140   20.7470 C   0  0  0  0  0  0  0  0  0  0  0  0
   18.9690    9.3760   20.2600 C   0  0  0  0  0  0  0  0  0  0  0  0
   18.2800   10.5440   20.0210 C   0  0  0  0  0  0  0  0  0  0  0  0
   18.8920   11.7530   20.2590 C   0  0  0  0  0  0  0  0  0  0  0  0
   20.1950   11.7970   20.7440 C   0  0  0  0  0  0  0  0  0  0  0  0
   23.4880   10.6920   20.5300 C   0  0  0  0  0  0  0  0  0  0  0  0
   23.2110   10.7890   19.1730 C   0  0  0  0  0  0  0  0  0  0  0  0
   24.2350   10.8650   18.2430 C   0  0  0  0  0  0  0  0  0  0  0  0
   25.5500   10.8410   18.6560 C   0  0  0  0  0  0  0  0  0  0  0  0
   25.8710   10.7460   20.0070 C   0  0  0  0  0  0  0  0  0  0  0  0
   24.8260   10.6610   20.9430 C   0  0  0  0  0  0  0  0  0  0  0  0
    0.0000    0.0000    0.0000 H   0  0  0  0  0  0  0  0  0  0  0  0
    0.0000    0.0000    0.0000 H   0  0  0  0  0  0  0  0  0  0  0  0
    0.0000    0.0000    0.0000 H   0  0  0  0  0  0  0  0  0  0  0  0
    0.0000    0.0000    0.0000 H   0  0  0  0  0  0  0  0  0  0  0  0
    0.0000    0.0000    0.0000 H   0  0  0  0  0  0  0  0  0  0  0  0
    0.0000    0.0000    0.0000 H   0  0  0  0  0  0  0  0  0  0  0  0
    0.0000    0.0000    0.0000 H   0  0  0  0  0  0  0  0  0  0  0  0
    0.0000    0.0000    0.0000 H   0  0  0  0  0  0  0  0  0  0  0  0
    0.0000    0.0000    0.0000 H   0  0  0  0  0  0  0  0  0  0  0  0
    0.0000    0.0000    0.0000 H   0  0  0  0  0  0  0  0  0  0  0  0
    0.0000    0.0000    0.0000 H   0  0  0  0  0  0  0  0  0  0  0  0
    0.0000    0.0000    0.0000 H   0  0  0  0  0  0  0  0  0  0  0  0
    0.0000    0.0000    0.0000 H   0  0  0  0  0  0  0  0  0  0  0  0
    0.0000    0.0000    0.0000 H   0  0  0  0  0  0  0  0  0  0  0  0
   12.4446    5.2803    9.0867 C   0  0  0  0  0  0  0  0  0  0  0  0
   11.5636    4.6235    9.6888 O   0  0  0  0  0  0  0  0  0  0  0  0
   12.3248    5.5223    7.7107 N   0  0  0  0  0  0  0  0  0  0  0  0
   13.2937    6.2705    6.9349 C   0  0  0  0  0  0  0  0  0  0  0  0
   12.5323    7.4329    6.3440 C   0  0  0  0  0  0  0  0  0  0  0  0
   11.3549    7.1084    5.6674 N   0  0  0  0  0  0  0  0  0  0  0  0
   11.5232    7.3327    4.2429 C   0  0  0  0  0  0  0  0  0  0  0  0
   10.6782    5.9201    5.9243 C   0  0  0  0  0  0  0  0  0  0  0  0
   11.1903    5.0176    6.9845 C   0  0  0  0  0  0  0  0  0  0  0  0
   14.1097    6.6684    7.5659 H   0  0  0  0  0  0  0  0  0  0  0  0
   13.6759    5.6635    6.0808 H   0  0  0  0  0  0  0  0  0  0  0  0
   12.4020    8.1704    7.1901 H   0  0  0  0  0  0  0  0  0  0  0  0
   13.2640    7.9546    5.6577 H   0  0  0  0  0  0  0  0  0  0  0  0
   10.5952    6.9374    3.7505 H   0  0  0  0  0  0  0  0  0  0  0  0
   12.4253    6.8130    3.9199 H   0  0  0  0  0  0  0  0  0  0  0  0
   11.5877    8.4394    4.1107 H   0  0  0  0  0  0  0  0  0  0  0  0
   10.6020    5.3090    4.9743 H   0  0  0  0  0  0  0  0  0  0  0  0
    9.5959    6.1607    6.1528 H   0  0  0  0  0  0  0  0  0  0  0  0
   11.5162    4.0138    6.5730 H   0  0  0  0  0  0  0  0  0  0  0  0
   10.3684    4.7256    7.7059 H   0  0  0  0  0  0  0  0  0  0  0  0
  1  3  2  0
  1  4  1  0
  1  5  1  0
  2  4  1  0
  2  6  1  0
  4  9  1  0
  4 15  1  0
  5  6  1  0
  5  8  1  0
  6  7  2  3
  9 10  2  0
  9 14  1  0
 10 11  1  0
 11 12  2  0
 12 13  1  0
 13 14  2  0
 15 16  2  0
 15 20  1  0
 16 17  1  0
 17 18  2  0
 18 19  1  0
 19 20  2  0
  2 21  1  0
  7 22  1  0
  8 23  1  0
  8 24  1  0
  8 25  1  0
 10 26  1  0
 11 27  1  0
 12 28  1  0
 13 29  1  0
 14 30  1  0
 16 31  1  0
 17 32  1  0
 19 33  1  0
 20 34  1  0
 35 36  2  0
 35 37  1  0
 37 38  1  0
 38 39  1  0
 39 40  1  0
 40 41  1  0
 40 42  1  0
 42 43  1  0
 43 37  1  0
 38 44  1  0
 38 45  1  0
 39 46  1  0
 39 47  1  0
 41 48  1  0
 41 49  1  0
 41 50  1  0
 42 51  1  0
 42 52  1  0
 43 53  1  0
 43 54  1  0
 18 35  1  0
M  END
>  <attachment_point>  (181) 
32

>  <score>  (181) 
<NA>

$$$$
4djw
     RDKit          3D

 42 45  0  0  0  0  0  0  0  0999 V2000
   22.4950   11.8750   22.5810 C   0  0  0  0  0  0  0  0  0  0  0  0
   22.5380    9.4930   22.4640 N   0  0  0  0  0  0  0  0  0  0  0  0
   22.3600   13.0630   22.3480 O   0  0  0  0  0  0  0  0  0  0  0  0
   22.3390   10.6680   21.5610 C   0  0  0  0  0  0  0  0  0  0  0  0
   22.7860   11.3350   23.8120 N   0  0  0  0  0  0  0  0  0  0  0  0
   22.7800    9.9140   23.7010 C   0  0  0  0  0  0  0  0  0  0  0  0
   22.9970    9.1110   24.7490 N   0  0  0  0  0  0  0  0  0  0  0  0
   23.0220   12.1410   25.0180 C   0  0  0  0  0  0  0  0  0  0  0  0
   20.9020   10.6270   21.0050 C   0  0  0  0  0  0  0  0  0  0  0  0
   20.2720    9.4140   20.7470 C   0  0  0  0  0  0  0  0  0  0  0  0
   18.9690    9.3760   20.2600 C   0  0  0  0  0  0  0  0  0  0  0  0
   18.2800   10.5440   20.0210 C   0  0  0  0  0  0  0  0  0  0  0  0
   18.8920   11.7530   20.2590 C   0  0  0  0  0  0  0  0  0  0  0  0
   20.1950   11.7970   20.7440 C   0  0  0  0  0  0  0  0  0  0  0  0
   23.4880   10.6920   20.5300 C   0  0  0  0  0  0  0  0  0  0  0  0
   23.2110   10.7890   19.1730 C   0  0  0  0  0  0  0  0  0  0  0  0
   24.2350   10.8650   18.2430 C   0  0  0  0  0  0  0  0  0  0  0  0
   25.5500   10.8410   18.6560 C   0  0  0  0  0  0  0  0  0  0  0  0
   25.8710   10.7460   20.0070 C   0  0  0  0  0  0  0  0  0  0  0  0
   24.8260   10.6610   20.9430 C   0  0  0  0  0  0  0  0  0  0  0  0
    0.0000    0.0000    0.0000 H   0  0  0  0  0  0  0  0  0  0  0  0
    0.0000    0.0000    0.0000 H   0  0  0  0  0  0  0  0  0  0  0  0
    0.0000    0.0000    0.0000 H   0  0  0  0  0  0  0  0  0  0  0  0
    0.0000    0.0000    0.0000 H   0  0  0  0  0  0  0  0  0  0  0  0
    0.0000    0.0000    0.0000 H   0  0  0  0  0  0  0  0  0  0  0  0
    0.0000    0.0000    0.0000 H   0  0  0  0  0  0  0  0  0  0  0  0
    0.0000    0.0000    0.0000 H   0  0  0  0  0  0  0  0  0  0  0  0
    0.0000    0.0000    0.0000 H   0  0  0  0  0  0  0  0  0  0  0  0
    0.0000    0.0000    0.0000 H   0  0  0  0  0  0  0  0  0  0  0  0
    0.0000    0.0000    0.0000 H   0  0  0  0  0  0  0  0  0  0  0  0
    0.0000    0.0000    0.0000 H   0  0  0  0  0  0  0  0  0  0  0  0
    0.0000    0.0000    0.0000 H   0  0  0  0  0  0  0  0  0  0  0  0
    0.0000    0.0000    0.0000 H   0  0  0  0  0  0  0  0  0  0  0  0
    0.0000    0.0000    0.0000 H   0  0  0  0  0  0  0  0  0  0  0  0
   12.4574    5.2858    9.0961 N   0  0  0  0  0  0  0  0  0  0  0  0
   12.0825    4.0190    8.8826 C   0  0  0  0  0  0  0  0  0  0  0  0
   10.9841    3.9740    8.0577 C   0  0  0  0  0  0  0  0  0  0  0  0
   10.7028    5.2931    7.7743 C   0  0  0  0  0  0  0  0  0  0  0  0
   11.6131    6.0383    8.4194 N   0  0  0  0  0  0  0  0  0  0  0  0
   12.5784    3.1492    9.3033 H   0  0  0  0  0  0  0  0  0  0  0  0
   10.4261    3.1353    7.6831 H   0  0  0  0  0  0  0  0  0  0  0  0
    9.8908    5.6848    7.1414 H   0  0  0  0  0  0  0  0  0  0  0  0
  1  3  2  0
  1  4  1  0
  1  5  1  0
  2  4  1  0
  2  6  1  0
  4  9  1  0
  4 15  1  0
  5  6  1  0
  5  8  1  0
  6  7  2  3
  9 10  2  0
  9 14  1  0
 10 11  1  0
 11 12  2  0
 12 13  1  0
 13 14  2  0
 15 16  2  0
 15 20  1  0
 16 17  1  0
 17 18  2  0
 18 19  1  0
 19 20  2  0
  2 21  1  0
  7 22  1  0
  8 23  1  0
  8 24  1  0
  8 25  1  0
 10 26  1  0
 11 27  1  0
 12 28  1  0
 13 29  1  0
 14 30  1  0
 16 31  1  0
 17 32  1  0
 19 33  1  0
 20 34  1  0
 35 36  1  0
 36 37  2  0
 37 38  1  0
 38 39  2  0
 39 35  1  0
 36 40  1  0
 37 41  1  0
 38 42  1  0
 18 35  1  0
M  END
>  <attachment_point>  (182) 
32

>  <score>  (182) 
<NA>

$$$$
4djw
     RDKit          3D

 46 49  0  0  0  0  0  0  0  0999 V2000
   22.4950   11.8750   22.5810 C   0  0  0  0  0  0  0  0  0  0  0  0
   22.5380    9.4930   22.4640 N   0  0  0  0  0  0  0  0  0  0  0  0
   22.3600   13.0630   22.3480 O   0  0  0  0  0  0  0  0  0  0  0  0
   22.3390   10.6680   21.5610 C   0  0  0  0  0  0  0  0  0  0  0  0
   22.7860   11.3350   23.8120 N   0  0  0  0  0  0  0  0  0  0  0  0
   22.7800    9.9140   23.7010 C   0  0  0  0  0  0  0  0  0  0  0  0
   22.9970    9.1110   24.7490 N   0  0  0  0  0  0  0  0  0  0  0  0
   23.0220   12.1410   25.0180 C   0  0  0  0  0  0  0  0  0  0  0  0
   20.9020   10.6270   21.0050 C   0  0  0  0  0  0  0  0  0  0  0  0
   20.2720    9.4140   20.7470 C   0  0  0  0  0  0  0  0  0  0  0  0
   18.9690    9.3760   20.2600 C   0  0  0  0  0  0  0  0  0  0  0  0
   18.2800   10.5440   20.0210 C   0  0  0  0  0  0  0  0  0  0  0  0
   18.8920   11.7530   20.2590 C   0  0  0  0  0  0  0  0  0  0  0  0
   20.1950   11.7970   20.7440 C   0  0  0  0  0  0  0  0  0  0  0  0
   23.4880   10.6920   20.5300 C   0  0  0  0  0  0  0  0  0  0  0  0
   23.2110   10.7890   19.1730 C   0  0  0  0  0  0  0  0  0  0  0  0
   24.2350   10.8650   18.2430 C   0  0  0  0  0  0  0  0  0  0  0  0
   25.5500   10.8410   18.6560 C   0  0  0  0  0  0  0  0  0  0  0  0
   25.8710   10.7460   20.0070 C   0  0  0  0  0  0  0  0  0  0  0  0
   24.8260   10.6610   20.9430 C   0  0  0  0  0  0  0  0  0  0  0  0
    0.0000    0.0000    0.0000 H   0  0  0  0  0  0  0  0  0  0  0  0
    0.0000    0.0000    0.0000 H   0  0  0  0  0  0  0  0  0  0  0  0
    0.0000    0.0000    0.0000 H   0  0  0  0  0  0  0  0  0  0  0  0
    0.0000    0.0000    0.0000 H   0  0  0  0  0  0  0  0  0  0  0  0
    0.0000    0.0000    0.0000 H   0  0  0  0  0  0  0  0  0  0  0  0
    0.0000    0.0000    0.0000 H   0  0  0  0  0  0  0  0  0  0  0  0
    0.0000    0.0000    0.0000 H   0  0  0  0  0  0  0  0  0  0  0  0
    0.0000    0.0000    0.0000 H   0  0  0  0  0  0  0  0  0  0  0  0
    0.0000    0.0000    0.0000 H   0  0  0  0  0  0  0  0  0  0  0  0
    0.0000    0.0000    0.0000 H   0  0  0  0  0  0  0  0  0  0  0  0
    0.0000    0.0000    0.0000 H   0  0  0  0  0  0  0  0  0  0  0  0
    0.0000    0.0000    0.0000 H   0  0  0  0  0  0  0  0  0  0  0  0
    0.0000    0.0000    0.0000 H   0  0  0  0  0  0  0  0  0  0  0  0
    0.0000    0.0000    0.0000 H   0  0  0  0  0  0  0  0  0  0  0  0
   12.5179    5.3114    9.1402 S   0  0  0  0  0  0  0  0  0  0  0  0
   12.4207    4.4011    7.6259 C   0  0  0  0  0  0  0  0  0  0  0  0
   11.1943    4.0826    7.0656 C   0  0  0  0  0  0  0  0  0  0  0  0
   11.1116    3.3746    5.8877 C   0  0  0  0  0  0  0  0  0  0  0  0
   12.2903    2.9756    5.2553 C   0  0  0  0  0  0  0  0  0  0  0  0
   13.5015    3.3011    5.8268 C   0  0  0  0  0  0  0  0  0  0  0  0
   13.6095    4.0126    7.0111 C   0  0  0  0  0  0  0  0  0  0  0  0
   10.2616    4.3758    7.5287 H   0  0  0  0  0  0  0  0  0  0  0  0
   10.1813    3.1006    5.4089 H   0  0  0  0  0  0  0  0  0  0  0  0
   12.2578    2.4088    4.3130 H   0  0  0  0  0  0  0  0  0  0  0  0
   14.4112    3.0045    5.3575 H   0  0  0  0  0  0  0  0  0  0  0  0
   14.5772    4.2550    7.4383 H   0  0  0  0  0  0  0  0  0  0  0  0
  1  3  2  0
  1  4  1  0
  1  5  1  0
  2  4  1  0
  2  6  1  0
  4  9  1  0
  4 15  1  0
  5  6  1  0
  5  8  1  0
  6  7  2  3
  9 10  2  0
  9 14  1  0
 10 11  1  0
 11 12  2  0
 12 13  1  0
 13 14  2  0
 15 16  2  0
 15 20  1  0
 16 17  1  0
 17 18  2  0
 18 19  1  0
 19 20  2  0
  2 21  1  0
  7 22  1  0
  8 23  1  0
  8 24  1  0
  8 25  1  0
 10 26  1  0
 11 27  1  0
 12 28  1  0
 13 29  1  0
 14 30  1  0
 16 31  1  0
 17 32  1  0
 19 33  1  0
 20 34  1  0
 35 36  1  0
 36 37  2  0
 37 38  1  0
 38 39  2  0
 39 40  1  0
 40 41  2  0
 41 36  1  0
 37 42  1  0
 38 43  1  0
 39 44  1  0
 40 45  1  0
 41 46  1  0
 18 35  1  0
M  END
>  <attachment_point>  (183) 
32

>  <score>  (183) 
<NA>

$$$$
4djw
     RDKit          3D

 42 44  0  0  0  0  0  0  0  0999 V2000
   22.4950   11.8750   22.5810 C   0  0  0  0  0  0  0  0  0  0  0  0
   22.5380    9.4930   22.4640 N   0  0  0  0  0  0  0  0  0  0  0  0
   22.3600   13.0630   22.3480 O   0  0  0  0  0  0  0  0  0  0  0  0
   22.3390   10.6680   21.5610 C   0  0  0  0  0  0  0  0  0  0  0  0
   22.7860   11.3350   23.8120 N   0  0  0  0  0  0  0  0  0  0  0  0
   22.7800    9.9140   23.7010 C   0  0  0  0  0  0  0  0  0  0  0  0
   22.9970    9.1110   24.7490 N   0  0  0  0  0  0  0  0  0  0  0  0
   23.0220   12.1410   25.0180 C   0  0  0  0  0  0  0  0  0  0  0  0
   20.9020   10.6270   21.0050 C   0  0  0  0  0  0  0  0  0  0  0  0
   20.2720    9.4140   20.7470 C   0  0  0  0  0  0  0  0  0  0  0  0
   18.9690    9.3760   20.2600 C   0  0  0  0  0  0  0  0  0  0  0  0
   18.2800   10.5440   20.0210 C   0  0  0  0  0  0  0  0  0  0  0  0
   18.8920   11.7530   20.2590 C   0  0  0  0  0  0  0  0  0  0  0  0
   20.1950   11.7970   20.7440 C   0  0  0  0  0  0  0  0  0  0  0  0
   23.4880   10.6920   20.5300 C   0  0  0  0  0  0  0  0  0  0  0  0
   23.2110   10.7890   19.1730 C   0  0  0  0  0  0  0  0  0  0  0  0
   24.2350   10.8650   18.2430 C   0  0  0  0  0  0  0  0  0  0  0  0
   25.5500   10.8410   18.6560 C   0  0  0  0  0  0  0  0  0  0  0  0
   25.8710   10.7460   20.0070 C   0  0  0  0  0  0  0  0  0  0  0  0
   24.8260   10.6610   20.9430 C   0  0  0  0  0  0  0  0  0  0  0  0
    0.0000    0.0000    0.0000 H   0  0  0  0  0  0  0  0  0  0  0  0
    0.0000    0.0000    0.0000 H   0  0  0  0  0  0  0  0  0  0  0  0
    0.0000    0.0000    0.0000 H   0  0  0  0  0  0  0  0  0  0  0  0
    0.0000    0.0000    0.0000 H   0  0  0  0  0  0  0  0  0  0  0  0
    0.0000    0.0000    0.0000 H   0  0  0  0  0  0  0  0  0  0  0  0
    0.0000    0.0000    0.0000 H   0  0  0  0  0  0  0  0  0  0  0  0
    0.0000    0.0000    0.0000 H   0  0  0  0  0  0  0  0  0  0  0  0
    0.0000    0.0000    0.0000 H   0  0  0  0  0  0  0  0  0  0  0  0
    0.0000    0.0000    0.0000 H   0  0  0  0  0  0  0  0  0  0  0  0
    0.0000    0.0000    0.0000 H   0  0  0  0  0  0  0  0  0  0  0  0
    0.0000    0.0000    0.0000 H   0  0  0  0  0  0  0  0  0  0  0  0
    0.0000    0.0000    0.0000 H   0  0  0  0  0  0  0  0  0  0  0  0
    0.0000    0.0000    0.0000 H   0  0  0  0  0  0  0  0  0  0  0  0
    0.0000    0.0000    0.0000 H   0  0  0  0  0  0  0  0  0  0  0  0
   12.5187    5.3117    9.1408 N   0  0  0  0  0  0  0  0  0  0  0  0
   10.9496    5.4381    9.8441 S   0  0  0  0  0  6  0  0  0  0  0  0
   10.6646    7.1323   10.1292 N   0  0  0  0  0  0  0  0  0  0  0  0
    9.8790    4.8906    8.9407 O   0  0  0  0  0  0  0  0  0  0  0  0
   10.9847    4.7233   11.1568 O   0  0  0  0  0  0  0  0  0  0  0  0
   12.4329    5.2445    8.1194 H   0  0  0  0  0  0  0  0  0  0  0  0
    9.7351    7.2842   10.5578 H   0  0  0  0  0  0  0  0  0  0  0  0
   11.4657    7.4683   10.6845 H   0  0  0  0  0  0  0  0  0  0  0  0
  1  3  2  0
  1  4  1  0
  1  5  1  0
  2  4  1  0
  2  6  1  0
  4  9  1  0
  4 15  1  0
  5  6  1  0
  5  8  1  0
  6  7  2  3
  9 10  2  0
  9 14  1  0
 10 11  1  0
 11 12  2  0
 12 13  1  0
 13 14  2  0
 15 16  2  0
 15 20  1  0
 16 17  1  0
 17 18  2  0
 18 19  1  0
 19 20  2  0
  2 21  1  0
  7 22  1  0
  8 23  1  0
  8 24  1  0
  8 25  1  0
 10 26  1  0
 11 27  1  0
 12 28  1  0
 13 29  1  0
 14 30  1  0
 16 31  1  0
 17 32  1  0
 19 33  1  0
 20 34  1  0
 35 36  1  0
 36 37  1  0
 36 38  2  0
 36 39  2  0
 35 40  1  0
 37 41  1  0
 37 42  1  0
 18 35  1  0
M  END
>  <attachment_point>  (184) 
32

>  <score>  (184) 
<NA>

$$$$
4djw
     RDKit          3D

 51 54  0  0  0  0  0  0  0  0999 V2000
   22.4950   11.8750   22.5810 C   0  0  0  0  0  0  0  0  0  0  0  0
   22.5380    9.4930   22.4640 N   0  0  0  0  0  0  0  0  0  0  0  0
   22.3600   13.0630   22.3480 O   0  0  0  0  0  0  0  0  0  0  0  0
   22.3390   10.6680   21.5610 C   0  0  0  0  0  0  0  0  0  0  0  0
   22.7860   11.3350   23.8120 N   0  0  0  0  0  0  0  0  0  0  0  0
   22.7800    9.9140   23.7010 C   0  0  0  0  0  0  0  0  0  0  0  0
   22.9970    9.1110   24.7490 N   0  0  0  0  0  0  0  0  0  0  0  0
   23.0220   12.1410   25.0180 C   0  0  0  0  0  0  0  0  0  0  0  0
   20.9020   10.6270   21.0050 C   0  0  0  0  0  0  0  0  0  0  0  0
   20.2720    9.4140   20.7470 C   0  0  0  0  0  0  0  0  0  0  0  0
   18.9690    9.3760   20.2600 C   0  0  0  0  0  0  0  0  0  0  0  0
   18.2800   10.5440   20.0210 C   0  0  0  0  0  0  0  0  0  0  0  0
   18.8920   11.7530   20.2590 C   0  0  0  0  0  0  0  0  0  0  0  0
   20.1950   11.7970   20.7440 C   0  0  0  0  0  0  0  0  0  0  0  0
   23.4880   10.6920   20.5300 C   0  0  0  0  0  0  0  0  0  0  0  0
   23.2110   10.7890   19.1730 C   0  0  0  0  0  0  0  0  0  0  0  0
   24.2350   10.8650   18.2430 C   0  0  0  0  0  0  0  0  0  0  0  0
   25.5500   10.8410   18.6560 C   0  0  0  0  0  0  0  0  0  0  0  0
   25.8710   10.7460   20.0070 C   0  0  0  0  0  0  0  0  0  0  0  0
   24.8260   10.6610   20.9430 C   0  0  0  0  0  0  0  0  0  0  0  0
    0.0000    0.0000    0.0000 H   0  0  0  0  0  0  0  0  0  0  0  0
    0.0000    0.0000    0.0000 H   0  0  0  0  0  0  0  0  0  0  0  0
    0.0000    0.0000    0.0000 H   0  0  0  0  0  0  0  0  0  0  0  0
    0.0000    0.0000    0.0000 H   0  0  0  0  0  0  0  0  0  0  0  0
    0.0000    0.0000    0.0000 H   0  0  0  0  0  0  0  0  0  0  0  0
    0.0000    0.0000    0.0000 H   0  0  0  0  0  0  0  0  0  0  0  0
    0.0000    0.0000    0.0000 H   0  0  0  0  0  0  0  0  0  0  0  0
    0.0000    0.0000    0.0000 H   0  0  0  0  0  0  0  0  0  0  0  0
    0.0000    0.0000    0.0000 H   0  0  0  0  0  0  0  0  0  0  0  0
    0.0000    0.0000    0.0000 H   0  0  0  0  0  0  0  0  0  0  0  0
    0.0000    0.0000    0.0000 H   0  0  0  0  0  0  0  0  0  0  0  0
    0.0000    0.0000    0.0000 H   0  0  0  0  0  0  0  0  0  0  0  0
    0.0000    0.0000    0.0000 H   0  0  0  0  0  0  0  0  0  0  0  0
    0.0000    0.0000    0.0000 H   0  0  0  0  0  0  0  0  0  0  0  0
   12.3449    5.2380    9.0140 N   0  0  0  0  0  0  0  0  0  0  0  0
   12.8017    4.7825    7.8259 C   0  0  0  0  0  0  0  0  0  0  0  0
   13.0496    3.4301    7.5509 C   0  0  0  0  0  0  0  0  0  0  0  0
   13.5283    2.9994    6.3508 C   0  0  0  0  0  0  0  0  0  0  0  0
   13.8056    3.8642    5.3145 C   0  0  0  0  0  0  0  0  0  0  0  0
   14.2972    3.3897    4.0975 O   0  0  0  0  0  0  0  0  0  0  0  0
   14.5909    4.2575    3.0301 C   0  0  0  0  0  0  0  0  0  0  0  0
   13.5738    5.1996    5.5456 C   0  0  0  0  0  0  0  0  0  0  0  0
   13.0948    5.6390    6.7419 C   0  0  0  0  0  0  0  0  0  0  0  0
   11.6102    5.3860    9.5680 H   0  0  0  0  0  0  0  0  0  0  0  0
   12.8303    2.7457    8.3784 H   0  0  0  0  0  0  0  0  0  0  0  0
   13.7040    1.9370    6.1907 H   0  0  0  0  0  0  0  0  0  0  0  0
   15.6240    4.7061    3.1500 H   0  0  0  0  0  0  0  0  0  0  0  0
   13.8172    5.0332    2.8761 H   0  0  0  0  0  0  0  0  0  0  0  0
   14.6287    3.6750    2.0610 H   0  0  0  0  0  0  0  0  0  0  0  0
   13.7893    5.8734    4.7251 H   0  0  0  0  0  0  0  0  0  0  0  0
   12.9124    6.7077    6.9235 H   0  0  0  0  0  0  0  0  0  0  0  0
  1  3  2  0
  1  4  1  0
  1  5  1  0
  2  4  1  0
  2  6  1  0
  4  9  1  0
  4 15  1  0
  5  6  1  0
  5  8  1  0
  6  7  2  3
  9 10  2  0
  9 14  1  0
 10 11  1  0
 11 12  2  0
 12 13  1  0
 13 14  2  0
 15 16  2  0
 15 20  1  0
 16 17  1  0
 17 18  2  0
 18 19  1  0
 19 20  2  0
  2 21  1  0
  7 22  1  0
  8 23  1  0
  8 24  1  0
  8 25  1  0
 10 26  1  0
 11 27  1  0
 12 28  1  0
 13 29  1  0
 14 30  1  0
 16 31  1  0
 17 32  1  0
 19 33  1  0
 20 34  1  0
 35 36  1  0
 36 37  2  0
 37 38  1  0
 38 39  2  0
 39 40  1  0
 40 41  1  0
 39 42  1  0
 42 43  2  0
 43 36  1  0
 35 44  1  0
 37 45  1  0
 38 46  1  0
 41 47  1  0
 41 48  1  0
 41 49  1  0
 42 50  1  0
 43 51  1  0
 18 35  1  0
M  END
>  <attachment_point>  (185) 
32

>  <score>  (185) 
<NA>

$$$$
4djw
     RDKit          3D

 48 51  0  0  0  0  0  0  0  0999 V2000
   22.4950   11.8750   22.5810 C   0  0  0  0  0  0  0  0  0  0  0  0
   22.5380    9.4930   22.4640 N   0  0  0  0  0  0  0  0  0  0  0  0
   22.3600   13.0630   22.3480 O   0  0  0  0  0  0  0  0  0  0  0  0
   22.3390   10.6680   21.5610 C   0  0  0  0  0  0  0  0  0  0  0  0
   22.7860   11.3350   23.8120 N   0  0  0  0  0  0  0  0  0  0  0  0
   22.7800    9.9140   23.7010 C   0  0  0  0  0  0  0  0  0  0  0  0
   22.9970    9.1110   24.7490 N   0  0  0  0  0  0  0  0  0  0  0  0
   23.0220   12.1410   25.0180 C   0  0  0  0  0  0  0  0  0  0  0  0
   20.9020   10.6270   21.0050 C   0  0  0  0  0  0  0  0  0  0  0  0
   20.2720    9.4140   20.7470 C   0  0  0  0  0  0  0  0  0  0  0  0
   18.9690    9.3760   20.2600 C   0  0  0  0  0  0  0  0  0  0  0  0
   18.2800   10.5440   20.0210 C   0  0  0  0  0  0  0  0  0  0  0  0
   18.8920   11.7530   20.2590 C   0  0  0  0  0  0  0  0  0  0  0  0
   20.1950   11.7970   20.7440 C   0  0  0  0  0  0  0  0  0  0  0  0
   23.4880   10.6920   20.5300 C   0  0  0  0  0  0  0  0  0  0  0  0
   23.2110   10.7890   19.1730 C   0  0  0  0  0  0  0  0  0  0  0  0
   24.2350   10.8650   18.2430 C   0  0  0  0  0  0  0  0  0  0  0  0
   25.5500   10.8410   18.6560 C   0  0  0  0  0  0  0  0  0  0  0  0
   25.8710   10.7460   20.0070 C   0  0  0  0  0  0  0  0  0  0  0  0
   24.8260   10.6610   20.9430 C   0  0  0  0  0  0  0  0  0  0  0  0
    0.0000    0.0000    0.0000 H   0  0  0  0  0  0  0  0  0  0  0  0
    0.0000    0.0000    0.0000 H   0  0  0  0  0  0  0  0  0  0  0  0
    0.0000    0.0000    0.0000 H   0  0  0  0  0  0  0  0  0  0  0  0
    0.0000    0.0000    0.0000 H   0  0  0  0  0  0  0  0  0  0  0  0
    0.0000    0.0000    0.0000 H   0  0  0  0  0  0  0  0  0  0  0  0
    0.0000    0.0000    0.0000 H   0  0  0  0  0  0  0  0  0  0  0  0
    0.0000    0.0000    0.0000 H   0  0  0  0  0  0  0  0  0  0  0  0
    0.0000    0.0000    0.0000 H   0  0  0  0  0  0  0  0  0  0  0  0
    0.0000    0.0000    0.0000 H   0  0  0  0  0  0  0  0  0  0  0  0
    0.0000    0.0000    0.0000 H   0  0  0  0  0  0  0  0  0  0  0  0
    0.0000    0.0000    0.0000 H   0  0  0  0  0  0  0  0  0  0  0  0
    0.0000    0.0000    0.0000 H   0  0  0  0  0  0  0  0  0  0  0  0
    0.0000    0.0000    0.0000 H   0  0  0  0  0  0  0  0  0  0  0  0
    0.0000    0.0000    0.0000 H   0  0  0  0  0  0  0  0  0  0  0  0
   12.3005    5.2192    8.9815 C   0  0  0  0  0  0  0  0  0  0  0  0
   11.3033    5.5177    9.9782 C   0  0  0  0  0  0  0  0  0  0  0  0
   10.6883    6.7511   10.0084 C   0  0  0  0  0  0  0  0  0  0  0  0
    9.7236    7.0762   10.9524 C   0  0  0  0  0  0  0  0  0  0  0  0
    9.3617    6.1240   11.9048 C   0  0  0  0  0  0  0  0  0  0  0  0
    8.1463    6.5662   13.0759 Cl  0  0  0  0  0  0  0  0  0  0  0  0
    9.9763    4.8896   11.8755 C   0  0  0  0  0  0  0  0  0  0  0  0
   10.9321    4.5928   10.9261 C   0  0  0  0  0  0  0  0  0  0  0  0
   12.5716    5.9665    8.2745 H   0  0  0  0  0  0  0  0  0  0  0  0
   12.7876    4.2724    8.9941 H   0  0  0  0  0  0  0  0  0  0  0  0
   10.9266    7.5416    9.2902 H   0  0  0  0  0  0  0  0  0  0  0  0
    9.2444    8.0646   10.9608 H   0  0  0  0  0  0  0  0  0  0  0  0
    9.6709    4.1786   12.6277 H   0  0  0  0  0  0  0  0  0  0  0  0
   11.4121    3.6311   10.9019 H   0  0  0  0  0  0  0  0  0  0  0  0
  1  3  2  0
  1  4  1  0
  1  5  1  0
  2  4  1  0
  2  6  1  0
  4  9  1  0
  4 15  1  0
  5  6  1  0
  5  8  1  0
  6  7  2  3
  9 10  2  0
  9 14  1  0
 10 11  1  0
 11 12  2  0
 12 13  1  0
 13 14  2  0
 15 16  2  0
 15 20  1  0
 16 17  1  0
 17 18  2  0
 18 19  1  0
 19 20  2  0
  2 21  1  0
  7 22  1  0
  8 23  1  0
  8 24  1  0
  8 25  1  0
 10 26  1  0
 11 27  1  0
 12 28  1  0
 13 29  1  0
 14 30  1  0
 16 31  1  0
 17 32  1  0
 19 33  1  0
 20 34  1  0
 35 36  1  0
 36 37  2  0
 37 38  1  0
 38 39  2  0
 39 40  1  0
 39 41  1  0
 41 42  2  0
 42 36  1  0
 35 43  1  0
 35 44  1  0
 37 45  1  0
 38 46  1  0
 41 47  1  0
 42 48  1  0
 18 35  1  0
M  END
>  <attachment_point>  (186) 
32

>  <score>  (186) 
<NA>

$$$$
4djw
     RDKit          3D

 46 48  0  0  0  0  0  0  0  0999 V2000
   22.4950   11.8750   22.5810 C   0  0  0  0  0  0  0  0  0  0  0  0
   22.5380    9.4930   22.4640 N   0  0  0  0  0  0  0  0  0  0  0  0
   22.3600   13.0630   22.3480 O   0  0  0  0  0  0  0  0  0  0  0  0
   22.3390   10.6680   21.5610 C   0  0  0  0  0  0  0  0  0  0  0  0
   22.7860   11.3350   23.8120 N   0  0  0  0  0  0  0  0  0  0  0  0
   22.7800    9.9140   23.7010 C   0  0  0  0  0  0  0  0  0  0  0  0
   22.9970    9.1110   24.7490 N   0  0  0  0  0  0  0  0  0  0  0  0
   23.0220   12.1410   25.0180 C   0  0  0  0  0  0  0  0  0  0  0  0
   20.9020   10.6270   21.0050 C   0  0  0  0  0  0  0  0  0  0  0  0
   20.2720    9.4140   20.7470 C   0  0  0  0  0  0  0  0  0  0  0  0
   18.9690    9.3760   20.2600 C   0  0  0  0  0  0  0  0  0  0  0  0
   18.2800   10.5440   20.0210 C   0  0  0  0  0  0  0  0  0  0  0  0
   18.8920   11.7530   20.2590 C   0  0  0  0  0  0  0  0  0  0  0  0
   20.1950   11.7970   20.7440 C   0  0  0  0  0  0  0  0  0  0  0  0
   23.4880   10.6920   20.5300 C   0  0  0  0  0  0  0  0  0  0  0  0
   23.2110   10.7890   19.1730 C   0  0  0  0  0  0  0  0  0  0  0  0
   24.2350   10.8650   18.2430 C   0  0  0  0  0  0  0  0  0  0  0  0
   25.5500   10.8410   18.6560 C   0  0  0  0  0  0  0  0  0  0  0  0
   25.8710   10.7460   20.0070 C   0  0  0  0  0  0  0  0  0  0  0  0
   24.8260   10.6610   20.9430 C   0  0  0  0  0  0  0  0  0  0  0  0
    0.0000    0.0000    0.0000 H   0  0  0  0  0  0  0  0  0  0  0  0
    0.0000    0.0000    0.0000 H   0  0  0  0  0  0  0  0  0  0  0  0
    0.0000    0.0000    0.0000 H   0  0  0  0  0  0  0  0  0  0  0  0
    0.0000    0.0000    0.0000 H   0  0  0  0  0  0  0  0  0  0  0  0
    0.0000    0.0000    0.0000 H   0  0  0  0  0  0  0  0  0  0  0  0
    0.0000    0.0000    0.0000 H   0  0  0  0  0  0  0  0  0  0  0  0
    0.0000    0.0000    0.0000 H   0  0  0  0  0  0  0  0  0  0  0  0
    0.0000    0.0000    0.0000 H   0  0  0  0  0  0  0  0  0  0  0  0
    0.0000    0.0000    0.0000 H   0  0  0  0  0  0  0  0  0  0  0  0
    0.0000    0.0000    0.0000 H   0  0  0  0  0  0  0  0  0  0  0  0
    0.0000    0.0000    0.0000 H   0  0  0  0  0  0  0  0  0  0  0  0
    0.0000    0.0000    0.0000 H   0  0  0  0  0  0  0  0  0  0  0  0
    0.0000    0.0000    0.0000 H   0  0  0  0  0  0  0  0  0  0  0  0
    0.0000    0.0000    0.0000 H   0  0  0  0  0  0  0  0  0  0  0  0
   12.4621    5.2877    9.0995 C   0  0  0  0  0  0  0  0  0  0  0  0
   11.3413    4.7664    9.9794 C   0  0  0  0  0  0  0  0  0  0  0  0
   10.8446    5.8644   10.8849 C   0  0  0  0  0  0  0  0  0  0  0  0
   11.9219    6.3273   11.7173 N   0  0  0  0  0  0  0  0  0  0  0  0
   12.7566    4.5399    8.3467 H   0  0  0  0  0  0  0  0  0  0  0  0
   12.0266    6.1496    8.5198 H   0  0  0  0  0  0  0  0  0  0  0  0
   10.5111    4.4845    9.2996 H   0  0  0  0  0  0  0  0  0  0  0  0
   11.6501    3.8692   10.5425 H   0  0  0  0  0  0  0  0  0  0  0  0
   10.4247    6.6589   10.2286 H   0  0  0  0  0  0  0  0  0  0  0  0
   10.0545    5.4720   11.5434 H   0  0  0  0  0  0  0  0  0  0  0  0
   12.6955    6.7800   11.1903 H   0  0  0  0  0  0  0  0  0  0  0  0
   11.6174    6.8642   12.5512 H   0  0  0  0  0  0  0  0  0  0  0  0
  1  3  2  0
  1  4  1  0
  1  5  1  0
  2  4  1  0
  2  6  1  0
  4  9  1  0
  4 15  1  0
  5  6  1  0
  5  8  1  0
  6  7  2  3
  9 10  2  0
  9 14  1  0
 10 11  1  0
 11 12  2  0
 12 13  1  0
 13 14  2  0
 15 16  2  0
 15 20  1  0
 16 17  1  0
 17 18  2  0
 18 19  1  0
 19 20  2  0
  2 21  1  0
  7 22  1  0
  8 23  1  0
  8 24  1  0
  8 25  1  0
 10 26  1  0
 11 27  1  0
 12 28  1  0
 13 29  1  0
 14 30  1  0
 16 31  1  0
 17 32  1  0
 19 33  1  0
 20 34  1  0
 35 36  1  0
 36 37  1  0
 37 38  1  0
 35 39  1  0
 35 40  1  0
 36 41  1  0
 36 42  1  0
 37 43  1  0
 37 44  1  0
 38 45  1  0
 38 46  1  0
 18 35  1  0
M  END
>  <attachment_point>  (187) 
32

>  <score>  (187) 
<NA>

$$$$
4djw
     RDKit          3D

 50 53  0  0  0  0  0  0  0  0999 V2000
   22.4950   11.8750   22.5810 C   0  0  0  0  0  0  0  0  0  0  0  0
   22.5380    9.4930   22.4640 N   0  0  0  0  0  0  0  0  0  0  0  0
   22.3600   13.0630   22.3480 O   0  0  0  0  0  0  0  0  0  0  0  0
   22.3390   10.6680   21.5610 C   0  0  0  0  0  0  0  0  0  0  0  0
   22.7860   11.3350   23.8120 N   0  0  0  0  0  0  0  0  0  0  0  0
   22.7800    9.9140   23.7010 C   0  0  0  0  0  0  0  0  0  0  0  0
   22.9970    9.1110   24.7490 N   0  0  0  0  0  0  0  0  0  0  0  0
   23.0220   12.1410   25.0180 C   0  0  0  0  0  0  0  0  0  0  0  0
   20.9020   10.6270   21.0050 C   0  0  0  0  0  0  0  0  0  0  0  0
   20.2720    9.4140   20.7470 C   0  0  0  0  0  0  0  0  0  0  0  0
   18.9690    9.3760   20.2600 C   0  0  0  0  0  0  0  0  0  0  0  0
   18.2800   10.5440   20.0210 C   0  0  0  0  0  0  0  0  0  0  0  0
   18.8920   11.7530   20.2590 C   0  0  0  0  0  0  0  0  0  0  0  0
   20.1950   11.7970   20.7440 C   0  0  0  0  0  0  0  0  0  0  0  0
   23.4880   10.6920   20.5300 C   0  0  0  0  0  0  0  0  0  0  0  0
   23.2110   10.7890   19.1730 C   0  0  0  0  0  0  0  0  0  0  0  0
   24.2350   10.8650   18.2430 C   0  0  0  0  0  0  0  0  0  0  0  0
   25.5500   10.8410   18.6560 C   0  0  0  0  0  0  0  0  0  0  0  0
   25.8710   10.7460   20.0070 C   0  0  0  0  0  0  0  0  0  0  0  0
   24.8260   10.6610   20.9430 C   0  0  0  0  0  0  0  0  0  0  0  0
    0.0000    0.0000    0.0000 H   0  0  0  0  0  0  0  0  0  0  0  0
    0.0000    0.0000    0.0000 H   0  0  0  0  0  0  0  0  0  0  0  0
    0.0000    0.0000    0.0000 H   0  0  0  0  0  0  0  0  0  0  0  0
    0.0000    0.0000    0.0000 H   0  0  0  0  0  0  0  0  0  0  0  0
    0.0000    0.0000    0.0000 H   0  0  0  0  0  0  0  0  0  0  0  0
    0.0000    0.0000    0.0000 H   0  0  0  0  0  0  0  0  0  0  0  0
    0.0000    0.0000    0.0000 H   0  0  0  0  0  0  0  0  0  0  0  0
    0.0000    0.0000    0.0000 H   0  0  0  0  0  0  0  0  0  0  0  0
    0.0000    0.0000    0.0000 H   0  0  0  0  0  0  0  0  0  0  0  0
    0.0000    0.0000    0.0000 H   0  0  0  0  0  0  0  0  0  0  0  0
    0.0000    0.0000    0.0000 H   0  0  0  0  0  0  0  0  0  0  0  0
    0.0000    0.0000    0.0000 H   0  0  0  0  0  0  0  0  0  0  0  0
    0.0000    0.0000    0.0000 H   0  0  0  0  0  0  0  0  0  0  0  0
    0.0000    0.0000    0.0000 H   0  0  0  0  0  0  0  0  0  0  0  0
   12.3780    5.2521    9.0381 N   0  0  0  0  0  0  0  0  0  0  0  0
   11.7223    6.8247    8.7364 S   0  0  0  0  0  6  0  0  0  0  0  0
   10.5557    6.6420    7.8442 O   0  0  0  0  0  0  0  0  0  0  0  0
   12.7136    7.7173    8.0456 O   0  0  0  0  0  0  0  0  0  0  0  0
   11.2548    7.5653   10.2546 C   0  0  0  0  0  0  0  0  0  0  0  0
    9.9831    7.3763   10.7366 C   0  0  0  0  0  0  0  0  0  0  0  0
    9.6376    7.9681   11.9322 C   0  0  0  0  0  0  0  0  0  0  0  0
   10.5778    8.7333   12.6114 C   0  0  0  0  0  0  0  0  0  0  0  0
   11.8535    8.9218   12.1259 C   0  0  0  0  0  0  0  0  0  0  0  0
   12.1905    8.3271   10.9309 C   0  0  0  0  0  0  0  0  0  0  0  0
   11.9240    4.8054    9.8663 H   0  0  0  0  0  0  0  0  0  0  0  0
    9.2757    6.7690   10.1734 H   0  0  0  0  0  0  0  0  0  0  0  0
    8.6319    7.8097   12.2987 H   0  0  0  0  0  0  0  0  0  0  0  0
   10.3098    9.1999   13.5512 H   0  0  0  0  0  0  0  0  0  0  0  0
   12.6089    9.5104   12.6281 H   0  0  0  0  0  0  0  0  0  0  0  0
   13.1880    8.4705   10.5445 H   0  0  0  0  0  0  0  0  0  0  0  0
  1  3  2  0
  1  4  1  0
  1  5  1  0
  2  4  1  0
  2  6  1  0
  4  9  1  0
  4 15  1  0
  5  6  1  0
  5  8  1  0
  6  7  2  3
  9 10  2  0
  9 14  1  0
 10 11  1  0
 11 12  2  0
 12 13  1  0
 13 14  2  0
 15 16  2  0
 15 20  1  0
 16 17  1  0
 17 18  2  0
 18 19  1  0
 19 20  2  0
  2 21  1  0
  7 22  1  0
  8 23  1  0
  8 24  1  0
  8 25  1  0
 10 26  1  0
 11 27  1  0
 12 28  1  0
 13 29  1  0
 14 30  1  0
 16 31  1  0
 17 32  1  0
 19 33  1  0
 20 34  1  0
 35 36  1  0
 36 37  2  0
 36 38  2  0
 36 39  1  0
 39 40  2  0
 40 41  1  0
 41 42  2  0
 42 43  1  0
 43 44  2  0
 44 39  1  0
 35 45  1  0
 40 46  1  0
 41 47  1  0
 42 48  1  0
 43 49  1  0
 44 50  1  0
 18 35  1  0
M  END
>  <attachment_point>  (188) 
32

>  <score>  (188) 
<NA>

$$$$
4djw
     RDKit          3D

 52 55  0  0  0  0  0  0  0  0999 V2000
   22.4950   11.8750   22.5810 C   0  0  0  0  0  0  0  0  0  0  0  0
   22.5380    9.4930   22.4640 N   0  0  0  0  0  0  0  0  0  0  0  0
   22.3600   13.0630   22.3480 O   0  0  0  0  0  0  0  0  0  0  0  0
   22.3390   10.6680   21.5610 C   0  0  0  0  0  0  0  0  0  0  0  0
   22.7860   11.3350   23.8120 N   0  0  0  0  0  0  0  0  0  0  0  0
   22.7800    9.9140   23.7010 C   0  0  0  0  0  0  0  0  0  0  0  0
   22.9970    9.1110   24.7490 N   0  0  0  0  0  0  0  0  0  0  0  0
   23.0220   12.1410   25.0180 C   0  0  0  0  0  0  0  0  0  0  0  0
   20.9020   10.6270   21.0050 C   0  0  0  0  0  0  0  0  0  0  0  0
   20.2720    9.4140   20.7470 C   0  0  0  0  0  0  0  0  0  0  0  0
   18.9690    9.3760   20.2600 C   0  0  0  0  0  0  0  0  0  0  0  0
   18.2800   10.5440   20.0210 C   0  0  0  0  0  0  0  0  0  0  0  0
   18.8920   11.7530   20.2590 C   0  0  0  0  0  0  0  0  0  0  0  0
   20.1950   11.7970   20.7440 C   0  0  0  0  0  0  0  0  0  0  0  0
   23.4880   10.6920   20.5300 C   0  0  0  0  0  0  0  0  0  0  0  0
   23.2110   10.7890   19.1730 C   0  0  0  0  0  0  0  0  0  0  0  0
   24.2350   10.8650   18.2430 C   0  0  0  0  0  0  0  0  0  0  0  0
   25.5500   10.8410   18.6560 C   0  0  0  0  0  0  0  0  0  0  0  0
   25.8710   10.7460   20.0070 C   0  0  0  0  0  0  0  0  0  0  0  0
   24.8260   10.6610   20.9430 C   0  0  0  0  0  0  0  0  0  0  0  0
    0.0000    0.0000    0.0000 H   0  0  0  0  0  0  0  0  0  0  0  0
    0.0000    0.0000    0.0000 H   0  0  0  0  0  0  0  0  0  0  0  0
    0.0000    0.0000    0.0000 H   0  0  0  0  0  0  0  0  0  0  0  0
    0.0000    0.0000    0.0000 H   0  0  0  0  0  0  0  0  0  0  0  0
    0.0000    0.0000    0.0000 H   0  0  0  0  0  0  0  0  0  0  0  0
    0.0000    0.0000    0.0000 H   0  0  0  0  0  0  0  0  0  0  0  0
    0.0000    0.0000    0.0000 H   0  0  0  0  0  0  0  0  0  0  0  0
    0.0000    0.0000    0.0000 H   0  0  0  0  0  0  0  0  0  0  0  0
    0.0000    0.0000    0.0000 H   0  0  0  0  0  0  0  0  0  0  0  0
    0.0000    0.0000    0.0000 H   0  0  0  0  0  0  0  0  0  0  0  0
    0.0000    0.0000    0.0000 H   0  0  0  0  0  0  0  0  0  0  0  0
    0.0000    0.0000    0.0000 H   0  0  0  0  0  0  0  0  0  0  0  0
    0.0000    0.0000    0.0000 H   0  0  0  0  0  0  0  0  0  0  0  0
    0.0000    0.0000    0.0000 H   0  0  0  0  0  0  0  0  0  0  0  0
   12.4482    5.2818    9.0894 C   0  0  0  0  0  0  0  0  0  0  0  0
   11.2856    4.8797    9.7121 C   0  0  0  0  0  0  0  0  0  0  0  0
   10.1838    4.4172    8.9882 C   0  0  0  0  0  0  0  0  0  0  0  0
   10.3018    4.3775    7.6219 C   0  0  0  0  0  0  0  0  0  0  0  0
    9.2683    3.9392    6.8639 O   0  0  0  0  0  0  0  0  0  0  0  0
    8.0105    3.4882    7.2385 C   0  0  0  0  0  0  0  0  0  0  0  0
    7.2927    4.5941    7.9784 C   0  0  0  0  0  0  0  0  0  0  0  0
   11.4674    4.7817    7.0134 C   0  0  0  0  0  0  0  0  0  0  0  0
   12.5633    5.2406    7.7176 C   0  0  0  0  0  0  0  0  0  0  0  0
   11.1688    4.9021   10.7903 H   0  0  0  0  0  0  0  0  0  0  0  0
    9.2865    4.1090    9.5280 H   0  0  0  0  0  0  0  0  0  0  0  0
    7.4334    3.2911    6.3110 H   0  0  0  0  0  0  0  0  0  0  0  0
    8.0306    2.5461    7.8298 H   0  0  0  0  0  0  0  0  0  0  0  0
    7.9644    5.4866    8.0847 H   0  0  0  0  0  0  0  0  0  0  0  0
    6.9590    4.2673    8.9873 H   0  0  0  0  0  0  0  0  0  0  0  0
    6.4304    4.9444    7.3902 H   0  0  0  0  0  0  0  0  0  0  0  0
   11.5635    4.7505    5.9200 H   0  0  0  0  0  0  0  0  0  0  0  0
   13.4808    5.5568    7.2067 H   0  0  0  0  0  0  0  0  0  0  0  0
  1  3  2  0
  1  4  1  0
  1  5  1  0
  2  4  1  0
  2  6  1  0
  4  9  1  0
  4 15  1  0
  5  6  1  0
  5  8  1  0
  6  7  2  3
  9 10  2  0
  9 14  1  0
 10 11  1  0
 11 12  2  0
 12 13  1  0
 13 14  2  0
 15 16  2  0
 15 20  1  0
 16 17  1  0
 17 18  2  0
 18 19  1  0
 19 20  2  0
  2 21  1  0
  7 22  1  0
  8 23  1  0
  8 24  1  0
  8 25  1  0
 10 26  1  0
 11 27  1  0
 12 28  1  0
 13 29  1  0
 14 30  1  0
 16 31  1  0
 17 32  1  0
 19 33  1  0
 20 34  1  0
 35 36  2  0
 36 37  1  0
 37 38  2  0
 38 39  1  0
 39 40  1  0
 40 41  1  0
 38 42  1  0
 42 43  2  0
 43 35  1  0
 36 44  1  0
 37 45  1  0
 40 46  1  0
 40 47  1  0
 41 48  1  0
 41 49  1  0
 41 50  1  0
 42 51  1  0
 43 52  1  0
 18 35  1  0
M  END
>  <attachment_point>  (189) 
32

>  <score>  (189) 
<NA>

$$$$
4djw
     RDKit          3D

 44 47  0  0  0  0  0  0  0  0999 V2000
   22.4950   11.8750   22.5810 C   0  0  0  0  0  0  0  0  0  0  0  0
   22.5380    9.4930   22.4640 N   0  0  0  0  0  0  0  0  0  0  0  0
   22.3600   13.0630   22.3480 O   0  0  0  0  0  0  0  0  0  0  0  0
   22.3390   10.6680   21.5610 C   0  0  0  0  0  0  0  0  0  0  0  0
   22.7860   11.3350   23.8120 N   0  0  0  0  0  0  0  0  0  0  0  0
   22.7800    9.9140   23.7010 C   0  0  0  0  0  0  0  0  0  0  0  0
   22.9970    9.1110   24.7490 N   0  0  0  0  0  0  0  0  0  0  0  0
   23.0220   12.1410   25.0180 C   0  0  0  0  0  0  0  0  0  0  0  0
   20.9020   10.6270   21.0050 C   0  0  0  0  0  0  0  0  0  0  0  0
   20.2720    9.4140   20.7470 C   0  0  0  0  0  0  0  0  0  0  0  0
   18.9690    9.3760   20.2600 C   0  0  0  0  0  0  0  0  0  0  0  0
   18.2800   10.5440   20.0210 C   0  0  0  0  0  0  0  0  0  0  0  0
   18.8920   11.7530   20.2590 C   0  0  0  0  0  0  0  0  0  0  0  0
   20.1950   11.7970   20.7440 C   0  0  0  0  0  0  0  0  0  0  0  0
   23.4880   10.6920   20.5300 C   0  0  0  0  0  0  0  0  0  0  0  0
   23.2110   10.7890   19.1730 C   0  0  0  0  0  0  0  0  0  0  0  0
   24.2350   10.8650   18.2430 C   0  0  0  0  0  0  0  0  0  0  0  0
   25.5500   10.8410   18.6560 C   0  0  0  0  0  0  0  0  0  0  0  0
   25.8710   10.7460   20.0070 C   0  0  0  0  0  0  0  0  0  0  0  0
   24.8260   10.6610   20.9430 C   0  0  0  0  0  0  0  0  0  0  0  0
    0.0000    0.0000    0.0000 H   0  0  0  0  0  0  0  0  0  0  0  0
    0.0000    0.0000    0.0000 H   0  0  0  0  0  0  0  0  0  0  0  0
    0.0000    0.0000    0.0000 H   0  0  0  0  0  0  0  0  0  0  0  0
    0.0000    0.0000    0.0000 H   0  0  0  0  0  0  0  0  0  0  0  0
    0.0000    0.0000    0.0000 H   0  0  0  0  0  0  0  0  0  0  0  0
    0.0000    0.0000    0.0000 H   0  0  0  0  0  0  0  0  0  0  0  0
    0.0000    0.0000    0.0000 H   0  0  0  0  0  0  0  0  0  0  0  0
    0.0000    0.0000    0.0000 H   0  0  0  0  0  0  0  0  0  0  0  0
    0.0000    0.0000    0.0000 H   0  0  0  0  0  0  0  0  0  0  0  0
    0.0000    0.0000    0.0000 H   0  0  0  0  0  0  0  0  0  0  0  0
    0.0000    0.0000    0.0000 H   0  0  0  0  0  0  0  0  0  0  0  0
    0.0000    0.0000    0.0000 H   0  0  0  0  0  0  0  0  0  0  0  0
    0.0000    0.0000    0.0000 H   0  0  0  0  0  0  0  0  0  0  0  0
    0.0000    0.0000    0.0000 H   0  0  0  0  0  0  0  0  0  0  0  0
   12.4403    5.2785    9.0836 C   0  0  0  0  0  0  0  0  0  0  0  0
   12.6203    4.5504    8.0261 C   0  0  0  0  0  0  0  0  0  0  0  0
   14.1909    4.0102    7.3899 S   0  0  0  0  0  0  0  0  0  0  0  0
   13.5042    3.1090    5.9809 C   0  0  0  0  0  0  0  0  0  0  0  0
   14.3831    2.2950    4.8615 S   0  0  0  0  0  0  0  0  0  0  0  0
   12.1139    3.2696    6.0776 N   0  0  0  0  0  0  0  0  0  0  0  0
   11.6230    4.0169    7.1346 C   0  0  0  0  0  0  0  0  0  0  0  0
   10.3764    4.2369    7.3337 O   0  0  0  0  0  0  0  0  0  0  0  0
   11.4694    5.6022    9.4616 H   0  0  0  0  0  0  0  0  0  0  0  0
   11.4962    2.8105    5.3349 H   0  0  0  0  0  0  0  0  0  0  0  0
  1  3  2  0
  1  4  1  0
  1  5  1  0
  2  4  1  0
  2  6  1  0
  4  9  1  0
  4 15  1  0
  5  6  1  0
  5  8  1  0
  6  7  2  3
  9 10  2  0
  9 14  1  0
 10 11  1  0
 11 12  2  0
 12 13  1  0
 13 14  2  0
 15 16  2  0
 15 20  1  0
 16 17  1  0
 17 18  2  0
 18 19  1  0
 19 20  2  0
  2 21  1  0
  7 22  1  0
  8 23  1  0
  8 24  1  0
  8 25  1  0
 10 26  1  0
 11 27  1  0
 12 28  1  0
 13 29  1  0
 14 30  1  0
 16 31  1  0
 17 32  1  0
 19 33  1  0
 20 34  1  0
 35 36  2  3
 36 37  1  0
 37 38  1  0
 38 39  2  0
 38 40  1  0
 40 41  1  0
 41 42  2  0
 41 36  1  0
 35 43  1  0
 40 44  1  0
 18 35  1  0
M  END
>  <attachment_point>  (190) 
32

>  <score>  (190) 
<NA>

$$$$
4djw
     RDKit          3D

 49 53  0  0  0  0  0  0  0  0999 V2000
   22.4950   11.8750   22.5810 C   0  0  0  0  0  0  0  0  0  0  0  0
   22.5380    9.4930   22.4640 N   0  0  0  0  0  0  0  0  0  0  0  0
   22.3600   13.0630   22.3480 O   0  0  0  0  0  0  0  0  0  0  0  0
   22.3390   10.6680   21.5610 C   0  0  0  0  0  0  0  0  0  0  0  0
   22.7860   11.3350   23.8120 N   0  0  0  0  0  0  0  0  0  0  0  0
   22.7800    9.9140   23.7010 C   0  0  0  0  0  0  0  0  0  0  0  0
   22.9970    9.1110   24.7490 N   0  0  0  0  0  0  0  0  0  0  0  0
   23.0220   12.1410   25.0180 C   0  0  0  0  0  0  0  0  0  0  0  0
   20.9020   10.6270   21.0050 C   0  0  0  0  0  0  0  0  0  0  0  0
   20.2720    9.4140   20.7470 C   0  0  0  0  0  0  0  0  0  0  0  0
   18.9690    9.3760   20.2600 C   0  0  0  0  0  0  0  0  0  0  0  0
   18.2800   10.5440   20.0210 C   0  0  0  0  0  0  0  0  0  0  0  0
   18.8920   11.7530   20.2590 C   0  0  0  0  0  0  0  0  0  0  0  0
   20.1950   11.7970   20.7440 C   0  0  0  0  0  0  0  0  0  0  0  0
   23.4880   10.6920   20.5300 C   0  0  0  0  0  0  0  0  0  0  0  0
   23.2110   10.7890   19.1730 C   0  0  0  0  0  0  0  0  0  0  0  0
   24.2350   10.8650   18.2430 C   0  0  0  0  0  0  0  0  0  0  0  0
   25.5500   10.8410   18.6560 C   0  0  0  0  0  0  0  0  0  0  0  0
   25.8710   10.7460   20.0070 C   0  0  0  0  0  0  0  0  0  0  0  0
   24.8260   10.6610   20.9430 C   0  0  0  0  0  0  0  0  0  0  0  0
    0.0000    0.0000    0.0000 H   0  0  0  0  0  0  0  0  0  0  0  0
    0.0000    0.0000    0.0000 H   0  0  0  0  0  0  0  0  0  0  0  0
    0.0000    0.0000    0.0000 H   0  0  0  0  0  0  0  0  0  0  0  0
    0.0000    0.0000    0.0000 H   0  0  0  0  0  0  0  0  0  0  0  0
    0.0000    0.0000    0.0000 H   0  0  0  0  0  0  0  0  0  0  0  0
    0.0000    0.0000    0.0000 H   0  0  0  0  0  0  0  0  0  0  0  0
    0.0000    0.0000    0.0000 H   0  0  0  0  0  0  0  0  0  0  0  0
    0.0000    0.0000    0.0000 H   0  0  0  0  0  0  0  0  0  0  0  0
    0.0000    0.0000    0.0000 H   0  0  0  0  0  0  0  0  0  0  0  0
    0.0000    0.0000    0.0000 H   0  0  0  0  0  0  0  0  0  0  0  0
    0.0000    0.0000    0.0000 H   0  0  0  0  0  0  0  0  0  0  0  0
    0.0000    0.0000    0.0000 H   0  0  0  0  0  0  0  0  0  0  0  0
    0.0000    0.0000    0.0000 H   0  0  0  0  0  0  0  0  0  0  0  0
    0.0000    0.0000    0.0000 H   0  0  0  0  0  0  0  0  0  0  0  0
   12.4011    5.2618    9.0550 C   0  0  0  0  0  0  0  0  0  0  0  0
   12.1418    3.9437    8.9559 C   0  0  0  0  0  0  0  0  0  0  0  0
   11.0520    3.5687    8.1534 C   0  0  0  0  0  0  0  0  0  0  0  0
   10.2680    4.5002    7.4864 C   0  0  0  0  0  0  0  0  0  0  0  0
    9.1995    4.4076    6.6790 N   0  0  0  0  0  0  0  0  0  0  0  0
    8.8022    5.6230    6.2854 C   0  0  0  0  0  0  0  0  0  0  0  0
    9.6619    6.5188    6.8735 C   0  0  0  0  0  0  0  0  0  0  0  0
   10.5812    5.8320    7.6254 C   0  0  0  0  0  0  0  0  0  0  0  0
   11.6786    6.2246    8.4324 C   0  0  0  0  0  0  0  0  0  0  0  0
   12.7024    3.1599    9.4416 H   0  0  0  0  0  0  0  0  0  0  0  0
   10.8116    2.5295    8.0478 H   0  0  0  0  0  0  0  0  0  0  0  0
    8.7594    3.5017    6.4113 H   0  0  0  0  0  0  0  0  0  0  0  0
    7.9503    5.8618    5.6184 H   0  0  0  0  0  0  0  0  0  0  0  0
    9.6607    7.5966    6.7921 H   0  0  0  0  0  0  0  0  0  0  0  0
   11.8852    7.2688    8.5117 H   0  0  0  0  0  0  0  0  0  0  0  0
  1  3  2  0
  1  4  1  0
  1  5  1  0
  2  4  1  0
  2  6  1  0
  4  9  1  0
  4 15  1  0
  5  6  1  0
  5  8  1  0
  6  7  2  3
  9 10  2  0
  9 14  1  0
 10 11  1  0
 11 12  2  0
 12 13  1  0
 13 14  2  0
 15 16  2  0
 15 20  1  0
 16 17  1  0
 17 18  2  0
 18 19  1  0
 19 20  2  0
  2 21  1  0
  7 22  1  0
  8 23  1  0
  8 24  1  0
  8 25  1  0
 10 26  1  0
 11 27  1  0
 12 28  1  0
 13 29  1  0
 14 30  1  0
 16 31  1  0
 17 32  1  0
 19 33  1  0
 20 34  1  0
 35 36  2  0
 36 37  1  0
 37 38  2  0
 38 39  1  0
 39 40  1  0
 40 41  2  0
 41 42  1  0
 42 43  2  0
 43 35  1  0
 42 38  1  0
 36 44  1  0
 37 45  1  0
 39 46  1  0
 40 47  1  0
 41 48  1  0
 43 49  1  0
 18 35  1  0
M  END
>  <attachment_point>  (191) 
32

>  <score>  (191) 
<NA>

$$$$
4djw
     RDKit          3D

 44 46  0  0  0  0  0  0  0  0999 V2000
   22.4950   11.8750   22.5810 C   0  0  0  0  0  0  0  0  0  0  0  0
   22.5380    9.4930   22.4640 N   0  0  0  0  0  0  0  0  0  0  0  0
   22.3600   13.0630   22.3480 O   0  0  0  0  0  0  0  0  0  0  0  0
   22.3390   10.6680   21.5610 C   0  0  0  0  0  0  0  0  0  0  0  0
   22.7860   11.3350   23.8120 N   0  0  0  0  0  0  0  0  0  0  0  0
   22.7800    9.9140   23.7010 C   0  0  0  0  0  0  0  0  0  0  0  0
   22.9970    9.1110   24.7490 N   0  0  0  0  0  0  0  0  0  0  0  0
   23.0220   12.1410   25.0180 C   0  0  0  0  0  0  0  0  0  0  0  0
   20.9020   10.6270   21.0050 C   0  0  0  0  0  0  0  0  0  0  0  0
   20.2720    9.4140   20.7470 C   0  0  0  0  0  0  0  0  0  0  0  0
   18.9690    9.3760   20.2600 C   0  0  0  0  0  0  0  0  0  0  0  0
   18.2800   10.5440   20.0210 C   0  0  0  0  0  0  0  0  0  0  0  0
   18.8920   11.7530   20.2590 C   0  0  0  0  0  0  0  0  0  0  0  0
   20.1950   11.7970   20.7440 C   0  0  0  0  0  0  0  0  0  0  0  0
   23.4880   10.6920   20.5300 C   0  0  0  0  0  0  0  0  0  0  0  0
   23.2110   10.7890   19.1730 C   0  0  0  0  0  0  0  0  0  0  0  0
   24.2350   10.8650   18.2430 C   0  0  0  0  0  0  0  0  0  0  0  0
   25.5500   10.8410   18.6560 C   0  0  0  0  0  0  0  0  0  0  0  0
   25.8710   10.7460   20.0070 C   0  0  0  0  0  0  0  0  0  0  0  0
   24.8260   10.6610   20.9430 C   0  0  0  0  0  0  0  0  0  0  0  0
    0.0000    0.0000    0.0000 H   0  0  0  0  0  0  0  0  0  0  0  0
    0.0000    0.0000    0.0000 H   0  0  0  0  0  0  0  0  0  0  0  0
    0.0000    0.0000    0.0000 H   0  0  0  0  0  0  0  0  0  0  0  0
    0.0000    0.0000    0.0000 H   0  0  0  0  0  0  0  0  0  0  0  0
    0.0000    0.0000    0.0000 H   0  0  0  0  0  0  0  0  0  0  0  0
    0.0000    0.0000    0.0000 H   0  0  0  0  0  0  0  0  0  0  0  0
    0.0000    0.0000    0.0000 H   0  0  0  0  0  0  0  0  0  0  0  0
    0.0000    0.0000    0.0000 H   0  0  0  0  0  0  0  0  0  0  0  0
    0.0000    0.0000    0.0000 H   0  0  0  0  0  0  0  0  0  0  0  0
    0.0000    0.0000    0.0000 H   0  0  0  0  0  0  0  0  0  0  0  0
    0.0000    0.0000    0.0000 H   0  0  0  0  0  0  0  0  0  0  0  0
    0.0000    0.0000    0.0000 H   0  0  0  0  0  0  0  0  0  0  0  0
    0.0000    0.0000    0.0000 H   0  0  0  0  0  0  0  0  0  0  0  0
    0.0000    0.0000    0.0000 H   0  0  0  0  0  0  0  0  0  0  0  0
   12.4433    5.2798    9.0858 O   0  0  0  0  0  0  0  0  0  0  0  0
   11.4000    5.4754    9.9988 C   0  0  0  0  0  0  0  0  0  0  0  0
   10.1005    5.0394    9.3535 C   0  0  0  0  0  0  0  0  0  0  0  0
    9.0574    5.2558   10.3206 N   0  0  0  0  0  0  0  0  0  0  0  0
   11.3377    6.5268   10.3351 H   0  0  0  0  0  0  0  0  0  0  0  0
   11.5847    4.7629   10.8359 H   0  0  0  0  0  0  0  0  0  0  0  0
   10.2223    3.9516    9.1064 H   0  0  0  0  0  0  0  0  0  0  0  0
    9.9090    5.6132    8.4125 H   0  0  0  0  0  0  0  0  0  0  0  0
    8.6253    4.4045   10.6843 H   0  0  0  0  0  0  0  0  0  0  0  0
    8.4442    6.0511   10.1327 H   0  0  0  0  0  0  0  0  0  0  0  0
  1  3  2  0
  1  4  1  0
  1  5  1  0
  2  4  1  0
  2  6  1  0
  4  9  1  0
  4 15  1  0
  5  6  1  0
  5  8  1  0
  6  7  2  3
  9 10  2  0
  9 14  1  0
 10 11  1  0
 11 12  2  0
 12 13  1  0
 13 14  2  0
 15 16  2  0
 15 20  1  0
 16 17  1  0
 17 18  2  0
 18 19  1  0
 19 20  2  0
  2 21  1  0
  7 22  1  0
  8 23  1  0
  8 24  1  0
  8 25  1  0
 10 26  1  0
 11 27  1  0
 12 28  1  0
 13 29  1  0
 14 30  1  0
 16 31  1  0
 17 32  1  0
 19 33  1  0
 20 34  1  0
 35 36  1  0
 36 37  1  0
 37 38  1  0
 36 39  1  0
 36 40  1  0
 37 41  1  0
 37 42  1  0
 38 43  1  0
 38 44  1  0
 18 35  1  0
M  END
>  <attachment_point>  (192) 
32

>  <score>  (192) 
<NA>

$$$$
4djw
     RDKit          3D

 46 48  0  0  0  0  0  0  0  0999 V2000
   22.4950   11.8750   22.5810 C   0  0  0  0  0  0  0  0  0  0  0  0
   22.5380    9.4930   22.4640 N   0  0  0  0  0  0  0  0  0  0  0  0
   22.3600   13.0630   22.3480 O   0  0  0  0  0  0  0  0  0  0  0  0
   22.3390   10.6680   21.5610 C   0  0  0  0  0  0  0  0  0  0  0  0
   22.7860   11.3350   23.8120 N   0  0  0  0  0  0  0  0  0  0  0  0
   22.7800    9.9140   23.7010 C   0  0  0  0  0  0  0  0  0  0  0  0
   22.9970    9.1110   24.7490 N   0  0  0  0  0  0  0  0  0  0  0  0
   23.0220   12.1410   25.0180 C   0  0  0  0  0  0  0  0  0  0  0  0
   20.9020   10.6270   21.0050 C   0  0  0  0  0  0  0  0  0  0  0  0
   20.2720    9.4140   20.7470 C   0  0  0  0  0  0  0  0  0  0  0  0
   18.9690    9.3760   20.2600 C   0  0  0  0  0  0  0  0  0  0  0  0
   18.2800   10.5440   20.0210 C   0  0  0  0  0  0  0  0  0  0  0  0
   18.8920   11.7530   20.2590 C   0  0  0  0  0  0  0  0  0  0  0  0
   20.1950   11.7970   20.7440 C   0  0  0  0  0  0  0  0  0  0  0  0
   23.4880   10.6920   20.5300 C   0  0  0  0  0  0  0  0  0  0  0  0
   23.2110   10.7890   19.1730 C   0  0  0  0  0  0  0  0  0  0  0  0
   24.2350   10.8650   18.2430 C   0  0  0  0  0  0  0  0  0  0  0  0
   25.5500   10.8410   18.6560 C   0  0  0  0  0  0  0  0  0  0  0  0
   25.8710   10.7460   20.0070 C   0  0  0  0  0  0  0  0  0  0  0  0
   24.8260   10.6610   20.9430 C   0  0  0  0  0  0  0  0  0  0  0  0
    0.0000    0.0000    0.0000 H   0  0  0  0  0  0  0  0  0  0  0  0
    0.0000    0.0000    0.0000 H   0  0  0  0  0  0  0  0  0  0  0  0
    0.0000    0.0000    0.0000 H   0  0  0  0  0  0  0  0  0  0  0  0
    0.0000    0.0000    0.0000 H   0  0  0  0  0  0  0  0  0  0  0  0
    0.0000    0.0000    0.0000 H   0  0  0  0  0  0  0  0  0  0  0  0
    0.0000    0.0000    0.0000 H   0  0  0  0  0  0  0  0  0  0  0  0
    0.0000    0.0000    0.0000 H   0  0  0  0  0  0  0  0  0  0  0  0
    0.0000    0.0000    0.0000 H   0  0  0  0  0  0  0  0  0  0  0  0
    0.0000    0.0000    0.0000 H   0  0  0  0  0  0  0  0  0  0  0  0
    0.0000    0.0000    0.0000 H   0  0  0  0  0  0  0  0  0  0  0  0
    0.0000    0.0000    0.0000 H   0  0  0  0  0  0  0  0  0  0  0  0
    0.0000    0.0000    0.0000 H   0  0  0  0  0  0  0  0  0  0  0  0
    0.0000    0.0000    0.0000 H   0  0  0  0  0  0  0  0  0  0  0  0
    0.0000    0.0000    0.0000 H   0  0  0  0  0  0  0  0  0  0  0  0
   12.4636    5.2884    9.1006 N   0  0  0  0  0  0  0  0  0  0  0  0
   11.6233    6.3805    8.6527 C   0  0  0  0  0  0  0  0  0  0  0  0
   12.3739    7.3815    7.8156 C   0  0  0  0  0  0  0  0  0  0  0  0
   13.5138    7.9870    8.6016 C   0  0  0  0  0  0  0  0  0  0  0  0
   12.8675    4.7410    8.3347 H   0  0  0  0  0  0  0  0  0  0  0  0
   11.2388    6.9113    9.5460 H   0  0  0  0  0  0  0  0  0  0  0  0
   10.8188    5.9516    8.0199 H   0  0  0  0  0  0  0  0  0  0  0  0
   12.7725    6.9546    6.8863 H   0  0  0  0  0  0  0  0  0  0  0  0
   11.6676    8.2080    7.5903 H   0  0  0  0  0  0  0  0  0  0  0  0
   13.3216    7.7782    9.6705 H   0  0  0  0  0  0  0  0  0  0  0  0
   13.5481    9.0898    8.4952 H   0  0  0  0  0  0  0  0  0  0  0  0
   14.4877    7.5930    8.2609 H   0  0  0  0  0  0  0  0  0  0  0  0
  1  3  2  0
  1  4  1  0
  1  5  1  0
  2  4  1  0
  2  6  1  0
  4  9  1  0
  4 15  1  0
  5  6  1  0
  5  8  1  0
  6  7  2  3
  9 10  2  0
  9 14  1  0
 10 11  1  0
 11 12  2  0
 12 13  1  0
 13 14  2  0
 15 16  2  0
 15 20  1  0
 16 17  1  0
 17 18  2  0
 18 19  1  0
 19 20  2  0
  2 21  1  0
  7 22  1  0
  8 23  1  0
  8 24  1  0
  8 25  1  0
 10 26  1  0
 11 27  1  0
 12 28  1  0
 13 29  1  0
 14 30  1  0
 16 31  1  0
 17 32  1  0
 19 33  1  0
 20 34  1  0
 35 36  1  0
 36 37  1  0
 37 38  1  0
 35 39  1  0
 36 40  1  0
 36 41  1  0
 37 42  1  0
 37 43  1  0
 38 44  1  0
 38 45  1  0
 38 46  1  0
 18 35  1  0
M  END
>  <attachment_point>  (193) 
32

>  <score>  (193) 
<NA>

$$$$
4djw
     RDKit          3D

 49 52  0  0  0  0  0  0  0  0999 V2000
   22.4950   11.8750   22.5810 C   0  0  0  0  0  0  0  0  0  0  0  0
   22.5380    9.4930   22.4640 N   0  0  0  0  0  0  0  0  0  0  0  0
   22.3600   13.0630   22.3480 O   0  0  0  0  0  0  0  0  0  0  0  0
   22.3390   10.6680   21.5610 C   0  0  0  0  0  0  0  0  0  0  0  0
   22.7860   11.3350   23.8120 N   0  0  0  0  0  0  0  0  0  0  0  0
   22.7800    9.9140   23.7010 C   0  0  0  0  0  0  0  0  0  0  0  0
   22.9970    9.1110   24.7490 N   0  0  0  0  0  0  0  0  0  0  0  0
   23.0220   12.1410   25.0180 C   0  0  0  0  0  0  0  0  0  0  0  0
   20.9020   10.6270   21.0050 C   0  0  0  0  0  0  0  0  0  0  0  0
   20.2720    9.4140   20.7470 C   0  0  0  0  0  0  0  0  0  0  0  0
   18.9690    9.3760   20.2600 C   0  0  0  0  0  0  0  0  0  0  0  0
   18.2800   10.5440   20.0210 C   0  0  0  0  0  0  0  0  0  0  0  0
   18.8920   11.7530   20.2590 C   0  0  0  0  0  0  0  0  0  0  0  0
   20.1950   11.7970   20.7440 C   0  0  0  0  0  0  0  0  0  0  0  0
   23.4880   10.6920   20.5300 C   0  0  0  0  0  0  0  0  0  0  0  0
   23.2110   10.7890   19.1730 C   0  0  0  0  0  0  0  0  0  0  0  0
   24.2350   10.8650   18.2430 C   0  0  0  0  0  0  0  0  0  0  0  0
   25.5500   10.8410   18.6560 C   0  0  0  0  0  0  0  0  0  0  0  0
   25.8710   10.7460   20.0070 C   0  0  0  0  0  0  0  0  0  0  0  0
   24.8260   10.6610   20.9430 C   0  0  0  0  0  0  0  0  0  0  0  0
    0.0000    0.0000    0.0000 H   0  0  0  0  0  0  0  0  0  0  0  0
    0.0000    0.0000    0.0000 H   0  0  0  0  0  0  0  0  0  0  0  0
    0.0000    0.0000    0.0000 H   0  0  0  0  0  0  0  0  0  0  0  0
    0.0000    0.0000    0.0000 H   0  0  0  0  0  0  0  0  0  0  0  0
    0.0000    0.0000    0.0000 H   0  0  0  0  0  0  0  0  0  0  0  0
    0.0000    0.0000    0.0000 H   0  0  0  0  0  0  0  0  0  0  0  0
    0.0000    0.0000    0.0000 H   0  0  0  0  0  0  0  0  0  0  0  0
    0.0000    0.0000    0.0000 H   0  0  0  0  0  0  0  0  0  0  0  0
    0.0000    0.0000    0.0000 H   0  0  0  0  0  0  0  0  0  0  0  0
    0.0000    0.0000    0.0000 H   0  0  0  0  0  0  0  0  0  0  0  0
    0.0000    0.0000    0.0000 H   0  0  0  0  0  0  0  0  0  0  0  0
    0.0000    0.0000    0.0000 H   0  0  0  0  0  0  0  0  0  0  0  0
    0.0000    0.0000    0.0000 H   0  0  0  0  0  0  0  0  0  0  0  0
    0.0000    0.0000    0.0000 H   0  0  0  0  0  0  0  0  0  0  0  0
   12.4153    5.2679    9.0654 C   0  0  0  0  0  0  0  0  0  0  0  0
   12.6988    4.5993    7.8995 C   0  0  0  0  0  0  0  0  0  0  0  0
   11.6096    4.1711    7.1636 C   0  0  0  0  0  0  0  0  0  0  0  0
   10.2941    4.3964    7.5666 C   0  0  0  0  0  0  0  0  0  0  0  0
    9.1614    3.9416    6.7848 C   0  0  0  0  0  0  0  0  0  0  0  0
    9.3944    3.2468    5.5735 N   0  0  0  0  0  0  0  0  0  0  0  0
    7.9982    4.1609    7.1761 O   0  0  0  0  0  0  0  0  0  0  0  0
   10.0567    5.0725    8.7453 C   0  0  0  0  0  0  0  0  0  0  0  0
   11.1445    5.5156    9.5073 C   0  0  0  0  0  0  0  0  0  0  0  0
   13.7256    4.4329    7.6011 H   0  0  0  0  0  0  0  0  0  0  0  0
   11.7773    3.6484    6.2523 H   0  0  0  0  0  0  0  0  0  0  0  0
   10.2108    3.4617    4.9588 H   0  0  0  0  0  0  0  0  0  0  0  0
    8.7633    2.4805    5.2266 H   0  0  0  0  0  0  0  0  0  0  0  0
    9.0667    5.2852    9.1238 H   0  0  0  0  0  0  0  0  0  0  0  0
   10.9325    6.0421   10.4254 H   0  0  0  0  0  0  0  0  0  0  0  0
  1  3  2  0
  1  4  1  0
  1  5  1  0
  2  4  1  0
  2  6  1  0
  4  9  1  0
  4 15  1  0
  5  6  1  0
  5  8  1  0
  6  7  2  3
  9 10  2  0
  9 14  1  0
 10 11  1  0
 11 12  2  0
 12 13  1  0
 13 14  2  0
 15 16  2  0
 15 20  1  0
 16 17  1  0
 17 18  2  0
 18 19  1  0
 19 20  2  0
  2 21  1  0
  7 22  1  0
  8 23  1  0
  8 24  1  0
  8 25  1  0
 10 26  1  0
 11 27  1  0
 12 28  1  0
 13 29  1  0
 14 30  1  0
 16 31  1  0
 17 32  1  0
 19 33  1  0
 20 34  1  0
 35 36  2  0
 36 37  1  0
 37 38  2  0
 38 39  1  0
 39 40  1  0
 39 41  2  0
 38 42  1  0
 42 43  2  0
 43 35  1  0
 36 44  1  0
 37 45  1  0
 40 46  1  0
 40 47  1  0
 42 48  1  0
 43 49  1  0
 18 35  1  0
M  END
>  <attachment_point>  (194) 
32

>  <score>  (194) 
<NA>

$$$$
4djw
     RDKit          3D

 45 47  0  0  0  0  0  0  0  0999 V2000
   22.4950   11.8750   22.5810 C   0  0  0  0  0  0  0  0  0  0  0  0
   22.5380    9.4930   22.4640 N   0  0  0  0  0  0  0  0  0  0  0  0
   22.3600   13.0630   22.3480 O   0  0  0  0  0  0  0  0  0  0  0  0
   22.3390   10.6680   21.5610 C   0  0  0  0  0  0  0  0  0  0  0  0
   22.7860   11.3350   23.8120 N   0  0  0  0  0  0  0  0  0  0  0  0
   22.7800    9.9140   23.7010 C   0  0  0  0  0  0  0  0  0  0  0  0
   22.9970    9.1110   24.7490 N   0  0  0  0  0  0  0  0  0  0  0  0
   23.0220   12.1410   25.0180 C   0  0  0  0  0  0  0  0  0  0  0  0
   20.9020   10.6270   21.0050 C   0  0  0  0  0  0  0  0  0  0  0  0
   20.2720    9.4140   20.7470 C   0  0  0  0  0  0  0  0  0  0  0  0
   18.9690    9.3760   20.2600 C   0  0  0  0  0  0  0  0  0  0  0  0
   18.2800   10.5440   20.0210 C   0  0  0  0  0  0  0  0  0  0  0  0
   18.8920   11.7530   20.2590 C   0  0  0  0  0  0  0  0  0  0  0  0
   20.1950   11.7970   20.7440 C   0  0  0  0  0  0  0  0  0  0  0  0
   23.4880   10.6920   20.5300 C   0  0  0  0  0  0  0  0  0  0  0  0
   23.2110   10.7890   19.1730 C   0  0  0  0  0  0  0  0  0  0  0  0
   24.2350   10.8650   18.2430 C   0  0  0  0  0  0  0  0  0  0  0  0
   25.5500   10.8410   18.6560 C   0  0  0  0  0  0  0  0  0  0  0  0
   25.8710   10.7460   20.0070 C   0  0  0  0  0  0  0  0  0  0  0  0
   24.8260   10.6610   20.9430 C   0  0  0  0  0  0  0  0  0  0  0  0
    0.0000    0.0000    0.0000 H   0  0  0  0  0  0  0  0  0  0  0  0
    0.0000    0.0000    0.0000 H   0  0  0  0  0  0  0  0  0  0  0  0
    0.0000    0.0000    0.0000 H   0  0  0  0  0  0  0  0  0  0  0  0
    0.0000    0.0000    0.0000 H   0  0  0  0  0  0  0  0  0  0  0  0
    0.0000    0.0000    0.0000 H   0  0  0  0  0  0  0  0  0  0  0  0
    0.0000    0.0000    0.0000 H   0  0  0  0  0  0  0  0  0  0  0  0
    0.0000    0.0000    0.0000 H   0  0  0  0  0  0  0  0  0  0  0  0
    0.0000    0.0000    0.0000 H   0  0  0  0  0  0  0  0  0  0  0  0
    0.0000    0.0000    0.0000 H   0  0  0  0  0  0  0  0  0  0  0  0
    0.0000    0.0000    0.0000 H   0  0  0  0  0  0  0  0  0  0  0  0
    0.0000    0.0000    0.0000 H   0  0  0  0  0  0  0  0  0  0  0  0
    0.0000    0.0000    0.0000 H   0  0  0  0  0  0  0  0  0  0  0  0
    0.0000    0.0000    0.0000 H   0  0  0  0  0  0  0  0  0  0  0  0
    0.0000    0.0000    0.0000 H   0  0  0  0  0  0  0  0  0  0  0  0
   12.4475    5.2815    9.0889 C   0  0  0  0  0  0  0  0  0  0  0  0
   11.5775    4.2929    9.8154 C   0  0  0  0  0  0  0  0  0  0  0  0
   12.9246    4.6168    7.8164 C   0  0  0  0  0  0  0  0  0  0  0  0
   11.7409    6.4523    8.7497 O   0  0  0  0  0  0  0  0  0  0  0  0
   10.5583    4.6884    9.9177 H   0  0  0  0  0  0  0  0  0  0  0  0
   12.0644    4.0482   10.7839 H   0  0  0  0  0  0  0  0  0  0  0  0
   11.4899    3.3187    9.2747 H   0  0  0  0  0  0  0  0  0  0  0  0
   12.8486    3.4972    7.8909 H   0  0  0  0  0  0  0  0  0  0  0  0
   13.9539    4.9551    7.6237 H   0  0  0  0  0  0  0  0  0  0  0  0
   12.2665    4.9588    6.9796 H   0  0  0  0  0  0  0  0  0  0  0  0
   12.2043    6.8044    7.9297 H   0  0  0  0  0  0  0  0  0  0  0  0
  1  3  2  0
  1  4  1  0
  1  5  1  0
  2  4  1  0
  2  6  1  0
  4  9  1  0
  4 15  1  0
  5  6  1  0
  5  8  1  0
  6  7  2  3
  9 10  2  0
  9 14  1  0
 10 11  1  0
 11 12  2  0
 12 13  1  0
 13 14  2  0
 15 16  2  0
 15 20  1  0
 16 17  1  0
 17 18  2  0
 18 19  1  0
 19 20  2  0
  2 21  1  0
  7 22  1  0
  8 23  1  0
  8 24  1  0
  8 25  1  0
 10 26  1  0
 11 27  1  0
 12 28  1  0
 13 29  1  0
 14 30  1  0
 16 31  1  0
 17 32  1  0
 19 33  1  0
 20 34  1  0
 35 36  1  0
 35 37  1  0
 35 38  1  0
 36 39  1  0
 36 40  1  0
 36 41  1  0
 37 42  1  0
 37 43  1  0
 37 44  1  0
 38 45  1  0
 18 35  1  0
M  END
>  <attachment_point>  (195) 
32

>  <score>  (195) 
<NA>

$$$$
4djw
     RDKit          3D

 45 48  0  0  0  0  0  0  0  0999 V2000
   22.4950   11.8750   22.5810 C   0  0  0  0  0  0  0  0  0  0  0  0
   22.5380    9.4930   22.4640 N   0  0  0  0  0  0  0  0  0  0  0  0
   22.3600   13.0630   22.3480 O   0  0  0  0  0  0  0  0  0  0  0  0
   22.3390   10.6680   21.5610 C   0  0  0  0  0  0  0  0  0  0  0  0
   22.7860   11.3350   23.8120 N   0  0  0  0  0  0  0  0  0  0  0  0
   22.7800    9.9140   23.7010 C   0  0  0  0  0  0  0  0  0  0  0  0
   22.9970    9.1110   24.7490 N   0  0  0  0  0  0  0  0  0  0  0  0
   23.0220   12.1410   25.0180 C   0  0  0  0  0  0  0  0  0  0  0  0
   20.9020   10.6270   21.0050 C   0  0  0  0  0  0  0  0  0  0  0  0
   20.2720    9.4140   20.7470 C   0  0  0  0  0  0  0  0  0  0  0  0
   18.9690    9.3760   20.2600 C   0  0  0  0  0  0  0  0  0  0  0  0
   18.2800   10.5440   20.0210 C   0  0  0  0  0  0  0  0  0  0  0  0
   18.8920   11.7530   20.2590 C   0  0  0  0  0  0  0  0  0  0  0  0
   20.1950   11.7970   20.7440 C   0  0  0  0  0  0  0  0  0  0  0  0
   23.4880   10.6920   20.5300 C   0  0  0  0  0  0  0  0  0  0  0  0
   23.2110   10.7890   19.1730 C   0  0  0  0  0  0  0  0  0  0  0  0
   24.2350   10.8650   18.2430 C   0  0  0  0  0  0  0  0  0  0  0  0
   25.5500   10.8410   18.6560 C   0  0  0  0  0  0  0  0  0  0  0  0
   25.8710   10.7460   20.0070 C   0  0  0  0  0  0  0  0  0  0  0  0
   24.8260   10.6610   20.9430 C   0  0  0  0  0  0  0  0  0  0  0  0
    0.0000    0.0000    0.0000 H   0  0  0  0  0  0  0  0  0  0  0  0
    0.0000    0.0000    0.0000 H   0  0  0  0  0  0  0  0  0  0  0  0
    0.0000    0.0000    0.0000 H   0  0  0  0  0  0  0  0  0  0  0  0
    0.0000    0.0000    0.0000 H   0  0  0  0  0  0  0  0  0  0  0  0
    0.0000    0.0000    0.0000 H   0  0  0  0  0  0  0  0  0  0  0  0
    0.0000    0.0000    0.0000 H   0  0  0  0  0  0  0  0  0  0  0  0
    0.0000    0.0000    0.0000 H   0  0  0  0  0  0  0  0  0  0  0  0
    0.0000    0.0000    0.0000 H   0  0  0  0  0  0  0  0  0  0  0  0
    0.0000    0.0000    0.0000 H   0  0  0  0  0  0  0  0  0  0  0  0
    0.0000    0.0000    0.0000 H   0  0  0  0  0  0  0  0  0  0  0  0
    0.0000    0.0000    0.0000 H   0  0  0  0  0  0  0  0  0  0  0  0
    0.0000    0.0000    0.0000 H   0  0  0  0  0  0  0  0  0  0  0  0
    0.0000    0.0000    0.0000 H   0  0  0  0  0  0  0  0  0  0  0  0
    0.0000    0.0000    0.0000 H   0  0  0  0  0  0  0  0  0  0  0  0
   12.4391    5.2780    9.0827 C   0  0  0  0  0  0  0  0  0  0  0  0
   12.6659    4.6749    7.8597 C   0  0  0  0  0  0  0  0  0  0  0  0
   11.5992    4.2246    7.0857 C   0  0  0  0  0  0  0  0  0  0  0  0
   10.3041    4.3779    7.5357 C   0  0  0  0  0  0  0  0  0  0  0  0
    9.2763    3.9330    6.7680 F   0  0  0  0  0  0  0  0  0  0  0  0
   10.1240    4.9794    8.7505 C   0  0  0  0  0  0  0  0  0  0  0  0
   11.1558    5.4393    9.5477 C   0  0  0  0  0  0  0  0  0  0  0  0
   10.9233    6.0359   10.7587 F   0  0  0  0  0  0  0  0  0  0  0  0
   13.6730    4.5468    7.4919 H   0  0  0  0  0  0  0  0  0  0  0  0
   11.7555    3.7485    6.1224 H   0  0  0  0  0  0  0  0  0  0  0  0
    9.1049    5.1045    9.1136 H   0  0  0  0  0  0  0  0  0  0  0  0
  1  3  2  0
  1  4  1  0
  1  5  1  0
  2  4  1  0
  2  6  1  0
  4  9  1  0
  4 15  1  0
  5  6  1  0
  5  8  1  0
  6  7  2  3
  9 10  2  0
  9 14  1  0
 10 11  1  0
 11 12  2  0
 12 13  1  0
 13 14  2  0
 15 16  2  0
 15 20  1  0
 16 17  1  0
 17 18  2  0
 18 19  1  0
 19 20  2  0
  2 21  1  0
  7 22  1  0
  8 23  1  0
  8 24  1  0
  8 25  1  0
 10 26  1  0
 11 27  1  0
 12 28  1  0
 13 29  1  0
 14 30  1  0
 16 31  1  0
 17 32  1  0
 19 33  1  0
 20 34  1  0
 35 36  2  0
 36 37  1  0
 37 38  2  0
 38 39  1  0
 38 40  1  0
 40 41  2  0
 41 42  1  0
 41 35  1  0
 36 43  1  0
 37 44  1  0
 40 45  1  0
 18 35  1  0
M  END
>  <attachment_point>  (196) 
32

>  <score>  (196) 
<NA>

$$$$
4djw
     RDKit          3D

 49 52  0  0  0  0  0  0  0  0999 V2000
   22.4950   11.8750   22.5810 C   0  0  0  0  0  0  0  0  0  0  0  0
   22.5380    9.4930   22.4640 N   0  0  0  0  0  0  0  0  0  0  0  0
   22.3600   13.0630   22.3480 O   0  0  0  0  0  0  0  0  0  0  0  0
   22.3390   10.6680   21.5610 C   0  0  0  0  0  0  0  0  0  0  0  0
   22.7860   11.3350   23.8120 N   0  0  0  0  0  0  0  0  0  0  0  0
   22.7800    9.9140   23.7010 C   0  0  0  0  0  0  0  0  0  0  0  0
   22.9970    9.1110   24.7490 N   0  0  0  0  0  0  0  0  0  0  0  0
   23.0220   12.1410   25.0180 C   0  0  0  0  0  0  0  0  0  0  0  0
   20.9020   10.6270   21.0050 C   0  0  0  0  0  0  0  0  0  0  0  0
   20.2720    9.4140   20.7470 C   0  0  0  0  0  0  0  0  0  0  0  0
   18.9690    9.3760   20.2600 C   0  0  0  0  0  0  0  0  0  0  0  0
   18.2800   10.5440   20.0210 C   0  0  0  0  0  0  0  0  0  0  0  0
   18.8920   11.7530   20.2590 C   0  0  0  0  0  0  0  0  0  0  0  0
   20.1950   11.7970   20.7440 C   0  0  0  0  0  0  0  0  0  0  0  0
   23.4880   10.6920   20.5300 C   0  0  0  0  0  0  0  0  0  0  0  0
   23.2110   10.7890   19.1730 C   0  0  0  0  0  0  0  0  0  0  0  0
   24.2350   10.8650   18.2430 C   0  0  0  0  0  0  0  0  0  0  0  0
   25.5500   10.8410   18.6560 C   0  0  0  0  0  0  0  0  0  0  0  0
   25.8710   10.7460   20.0070 C   0  0  0  0  0  0  0  0  0  0  0  0
   24.8260   10.6610   20.9430 C   0  0  0  0  0  0  0  0  0  0  0  0
    0.0000    0.0000    0.0000 H   0  0  0  0  0  0  0  0  0  0  0  0
    0.0000    0.0000    0.0000 H   0  0  0  0  0  0  0  0  0  0  0  0
    0.0000    0.0000    0.0000 H   0  0  0  0  0  0  0  0  0  0  0  0
    0.0000    0.0000    0.0000 H   0  0  0  0  0  0  0  0  0  0  0  0
    0.0000    0.0000    0.0000 H   0  0  0  0  0  0  0  0  0  0  0  0
    0.0000    0.0000    0.0000 H   0  0  0  0  0  0  0  0  0  0  0  0
    0.0000    0.0000    0.0000 H   0  0  0  0  0  0  0  0  0  0  0  0
    0.0000    0.0000    0.0000 H   0  0  0  0  0  0  0  0  0  0  0  0
    0.0000    0.0000    0.0000 H   0  0  0  0  0  0  0  0  0  0  0  0
    0.0000    0.0000    0.0000 H   0  0  0  0  0  0  0  0  0  0  0  0
    0.0000    0.0000    0.0000 H   0  0  0  0  0  0  0  0  0  0  0  0
    0.0000    0.0000    0.0000 H   0  0  0  0  0  0  0  0  0  0  0  0
    0.0000    0.0000    0.0000 H   0  0  0  0  0  0  0  0  0  0  0  0
    0.0000    0.0000    0.0000 H   0  0  0  0  0  0  0  0  0  0  0  0
   12.4500    5.2826    9.0907 C   0  0  0  0  0  0  0  0  0  0  0  0
   12.5958    5.3645    7.7261 C   0  0  0  0  0  0  0  0  0  0  0  0
   11.5518    4.9218    6.9507 C   0  0  0  0  0  0  0  0  0  0  0  0
   10.4062    4.4167    7.5092 C   0  0  0  0  0  0  0  0  0  0  0  0
    9.3885    3.9863    6.6694 O   0  0  0  0  0  0  0  0  0  0  0  0
    8.3649    4.8792    6.2414 C   0  0  0  0  0  0  0  0  0  0  0  0
    8.9058    5.9454    5.5410 F   0  0  0  0  0  0  0  0  0  0  0  0
    7.5456    4.1340    5.3971 F   0  0  0  0  0  0  0  0  0  0  0  0
    7.6188    5.2810    7.3197 F   0  0  0  0  0  0  0  0  0  0  0  0
   10.2981    4.3511    8.8748 C   0  0  0  0  0  0  0  0  0  0  0  0
   11.3157    4.7819    9.6944 C   0  0  0  0  0  0  0  0  0  0  0  0
   13.5192    5.7716    7.2828 H   0  0  0  0  0  0  0  0  0  0  0  0
   11.6599    4.9834    5.8800 H   0  0  0  0  0  0  0  0  0  0  0  0
    9.3938    3.9520    9.3535 H   0  0  0  0  0  0  0  0  0  0  0  0
   11.2399    4.7340   10.7916 H   0  0  0  0  0  0  0  0  0  0  0  0
  1  3  2  0
  1  4  1  0
  1  5  1  0
  2  4  1  0
  2  6  1  0
  4  9  1  0
  4 15  1  0
  5  6  1  0
  5  8  1  0
  6  7  2  3
  9 10  2  0
  9 14  1  0
 10 11  1  0
 11 12  2  0
 12 13  1  0
 13 14  2  0
 15 16  2  0
 15 20  1  0
 16 17  1  0
 17 18  2  0
 18 19  1  0
 19 20  2  0
  2 21  1  0
  7 22  1  0
  8 23  1  0
  8 24  1  0
  8 25  1  0
 10 26  1  0
 11 27  1  0
 12 28  1  0
 13 29  1  0
 14 30  1  0
 16 31  1  0
 17 32  1  0
 19 33  1  0
 20 34  1  0
 35 36  2  0
 36 37  1  0
 37 38  2  0
 38 39  1  0
 39 40  1  0
 40 41  1  0
 40 42  1  0
 40 43  1  0
 38 44  1  0
 44 45  2  0
 45 35  1  0
 36 46  1  0
 37 47  1  0
 44 48  1  0
 45 49  1  0
 18 35  1  0
M  END
>  <attachment_point>  (197) 
32

>  <score>  (197) 
<NA>

$$$$
4djw
     RDKit          3D

 56 58  0  0  0  0  0  0  0  0999 V2000
   22.4950   11.8750   22.5810 C   0  0  0  0  0  0  0  0  0  0  0  0
   22.5380    9.4930   22.4640 N   0  0  0  0  0  0  0  0  0  0  0  0
   22.3600   13.0630   22.3480 O   0  0  0  0  0  0  0  0  0  0  0  0
   22.3390   10.6680   21.5610 C   0  0  0  0  0  0  0  0  0  0  0  0
   22.7860   11.3350   23.8120 N   0  0  0  0  0  0  0  0  0  0  0  0
   22.7800    9.9140   23.7010 C   0  0  0  0  0  0  0  0  0  0  0  0
   22.9970    9.1110   24.7490 N   0  0  0  0  0  0  0  0  0  0  0  0
   23.0220   12.1410   25.0180 C   0  0  0  0  0  0  0  0  0  0  0  0
   20.9020   10.6270   21.0050 C   0  0  0  0  0  0  0  0  0  0  0  0
   20.2720    9.4140   20.7470 C   0  0  0  0  0  0  0  0  0  0  0  0
   18.9690    9.3760   20.2600 C   0  0  0  0  0  0  0  0  0  0  0  0
   18.2800   10.5440   20.0210 C   0  0  0  0  0  0  0  0  0  0  0  0
   18.8920   11.7530   20.2590 C   0  0  0  0  0  0  0  0  0  0  0  0
   20.1950   11.7970   20.7440 C   0  0  0  0  0  0  0  0  0  0  0  0
   23.4880   10.6920   20.5300 C   0  0  0  0  0  0  0  0  0  0  0  0
   23.2110   10.7890   19.1730 C   0  0  0  0  0  0  0  0  0  0  0  0
   24.2350   10.8650   18.2430 C   0  0  0  0  0  0  0  0  0  0  0  0
   25.5500   10.8410   18.6560 C   0  0  0  0  0  0  0  0  0  0  0  0
   25.8710   10.7460   20.0070 C   0  0  0  0  0  0  0  0  0  0  0  0
   24.8260   10.6610   20.9430 C   0  0  0  0  0  0  0  0  0  0  0  0
    0.0000    0.0000    0.0000 H   0  0  0  0  0  0  0  0  0  0  0  0
    0.0000    0.0000    0.0000 H   0  0  0  0  0  0  0  0  0  0  0  0
    0.0000    0.0000    0.0000 H   0  0  0  0  0  0  0  0  0  0  0  0
    0.0000    0.0000    0.0000 H   0  0  0  0  0  0  0  0  0  0  0  0
    0.0000    0.0000    0.0000 H   0  0  0  0  0  0  0  0  0  0  0  0
    0.0000    0.0000    0.0000 H   0  0  0  0  0  0  0  0  0  0  0  0
    0.0000    0.0000    0.0000 H   0  0  0  0  0  0  0  0  0  0  0  0
    0.0000    0.0000    0.0000 H   0  0  0  0  0  0  0  0  0  0  0  0
    0.0000    0.0000    0.0000 H   0  0  0  0  0  0  0  0  0  0  0  0
    0.0000    0.0000    0.0000 H   0  0  0  0  0  0  0  0  0  0  0  0
    0.0000    0.0000    0.0000 H   0  0  0  0  0  0  0  0  0  0  0  0
    0.0000    0.0000    0.0000 H   0  0  0  0  0  0  0  0  0  0  0  0
    0.0000    0.0000    0.0000 H   0  0  0  0  0  0  0  0  0  0  0  0
    0.0000    0.0000    0.0000 H   0  0  0  0  0  0  0  0  0  0  0  0
   12.4296    5.2739    9.0758 C   0  0  0  0  0  0  0  0  0  0  0  0
   11.4268    6.4113    9.1538 C   0  0  0  0  0  0  0  0  0  0  0  0
   11.0568    6.6082   10.5956 C   0  0  0  0  0  0  0  0  0  0  0  0
   10.0681    7.7307   10.6908 C   0  0  0  0  0  0  0  0  0  0  0  0
    8.8006    7.5098    9.9364 C   0  0  0  0  0  0  0  0  0  0  0  0
    7.9322    8.7516   10.1584 C   0  0  0  0  0  0  0  0  0  0  0  0
    6.6161    8.6264    9.4304 C   0  0  0  0  0  0  0  0  0  0  0  0
   12.0832    4.3664    9.6018 H   0  0  0  0  0  0  0  0  0  0  0  0
   12.7978    5.1006    8.0590 H   0  0  0  0  0  0  0  0  0  0  0  0
   11.9138    7.3014    8.7193 H   0  0  0  0  0  0  0  0  0  0  0  0
   10.5024    6.1106    8.5898 H   0  0  0  0  0  0  0  0  0  0  0  0
   10.7043    5.6643   11.0056 H   0  0  0  0  0  0  0  0  0  0  0  0
   11.9964    6.9304   11.1202 H   0  0  0  0  0  0  0  0  0  0  0  0
    9.8092    7.8330   11.7849 H   0  0  0  0  0  0  0  0  0  0  0  0
   10.5199    8.6832   10.3485 H   0  0  0  0  0  0  0  0  0  0  0  0
    8.2591    6.6040   10.2169 H   0  0  0  0  0  0  0  0  0  0  0  0
    9.0049    7.4617    8.8359 H   0  0  0  0  0  0  0  0  0  0  0  0
    8.4524    9.6333    9.7307 H   0  0  0  0  0  0  0  0  0  0  0  0
    7.7902    8.9103   11.2278 H   0  0  0  0  0  0  0  0  0  0  0  0
    6.0137    7.8462    9.9691 H   0  0  0  0  0  0  0  0  0  0  0  0
    6.1122    9.6118    9.5101 H   0  0  0  0  0  0  0  0  0  0  0  0
    6.7803    8.3633    8.3768 H   0  0  0  0  0  0  0  0  0  0  0  0
  1  3  2  0
  1  4  1  0
  1  5  1  0
  2  4  1  0
  2  6  1  0
  4  9  1  0
  4 15  1  0
  5  6  1  0
  5  8  1  0
  6  7  2  3
  9 10  2  0
  9 14  1  0
 10 11  1  0
 11 12  2  0
 12 13  1  0
 13 14  2  0
 15 16  2  0
 15 20  1  0
 16 17  1  0
 17 18  2  0
 18 19  1  0
 19 20  2  0
  2 21  1  0
  7 22  1  0
  8 23  1  0
  8 24  1  0
  8 25  1  0
 10 26  1  0
 11 27  1  0
 12 28  1  0
 13 29  1  0
 14 30  1  0
 16 31  1  0
 17 32  1  0
 19 33  1  0
 20 34  1  0
 35 36  1  0
 36 37  1  0
 37 38  1  0
 38 39  1  0
 39 40  1  0
 40 41  1  0
 35 42  1  0
 35 43  1  0
 36 44  1  0
 36 45  1  0
 37 46  1  0
 37 47  1  0
 38 48  1  0
 38 49  1  0
 39 50  1  0
 39 51  1  0
 40 52  1  0
 40 53  1  0
 41 54  1  0
 41 55  1  0
 41 56  1  0
 18 35  1  0
M  END
>  <attachment_point>  (198) 
32

>  <score>  (198) 
<NA>

$$$$
4djw
     RDKit          3D

 46 49  0  0  0  0  0  0  0  0999 V2000
   22.4950   11.8750   22.5810 C   0  0  0  0  0  0  0  0  0  0  0  0
   22.5380    9.4930   22.4640 N   0  0  0  0  0  0  0  0  0  0  0  0
   22.3600   13.0630   22.3480 O   0  0  0  0  0  0  0  0  0  0  0  0
   22.3390   10.6680   21.5610 C   0  0  0  0  0  0  0  0  0  0  0  0
   22.7860   11.3350   23.8120 N   0  0  0  0  0  0  0  0  0  0  0  0
   22.7800    9.9140   23.7010 C   0  0  0  0  0  0  0  0  0  0  0  0
   22.9970    9.1110   24.7490 N   0  0  0  0  0  0  0  0  0  0  0  0
   23.0220   12.1410   25.0180 C   0  0  0  0  0  0  0  0  0  0  0  0
   20.9020   10.6270   21.0050 C   0  0  0  0  0  0  0  0  0  0  0  0
   20.2720    9.4140   20.7470 C   0  0  0  0  0  0  0  0  0  0  0  0
   18.9690    9.3760   20.2600 C   0  0  0  0  0  0  0  0  0  0  0  0
   18.2800   10.5440   20.0210 C   0  0  0  0  0  0  0  0  0  0  0  0
   18.8920   11.7530   20.2590 C   0  0  0  0  0  0  0  0  0  0  0  0
   20.1950   11.7970   20.7440 C   0  0  0  0  0  0  0  0  0  0  0  0
   23.4880   10.6920   20.5300 C   0  0  0  0  0  0  0  0  0  0  0  0
   23.2110   10.7890   19.1730 C   0  0  0  0  0  0  0  0  0  0  0  0
   24.2350   10.8650   18.2430 C   0  0  0  0  0  0  0  0  0  0  0  0
   25.5500   10.8410   18.6560 C   0  0  0  0  0  0  0  0  0  0  0  0
   25.8710   10.7460   20.0070 C   0  0  0  0  0  0  0  0  0  0  0  0
   24.8260   10.6610   20.9430 C   0  0  0  0  0  0  0  0  0  0  0  0
    0.0000    0.0000    0.0000 H   0  0  0  0  0  0  0  0  0  0  0  0
    0.0000    0.0000    0.0000 H   0  0  0  0  0  0  0  0  0  0  0  0
    0.0000    0.0000    0.0000 H   0  0  0  0  0  0  0  0  0  0  0  0
    0.0000    0.0000    0.0000 H   0  0  0  0  0  0  0  0  0  0  0  0
    0.0000    0.0000    0.0000 H   0  0  0  0  0  0  0  0  0  0  0  0
    0.0000    0.0000    0.0000 H   0  0  0  0  0  0  0  0  0  0  0  0
    0.0000    0.0000    0.0000 H   0  0  0  0  0  0  0  0  0  0  0  0
    0.0000    0.0000    0.0000 H   0  0  0  0  0  0  0  0  0  0  0  0
    0.0000    0.0000    0.0000 H   0  0  0  0  0  0  0  0  0  0  0  0
    0.0000    0.0000    0.0000 H   0  0  0  0  0  0  0  0  0  0  0  0
    0.0000    0.0000    0.0000 H   0  0  0  0  0  0  0  0  0  0  0  0
    0.0000    0.0000    0.0000 H   0  0  0  0  0  0  0  0  0  0  0  0
    0.0000    0.0000    0.0000 H   0  0  0  0  0  0  0  0  0  0  0  0
    0.0000    0.0000    0.0000 H   0  0  0  0  0  0  0  0  0  0  0  0
   12.4450    5.2805    9.0870 C   0  0  0  0  0  0  0  0  0  0  0  0
   11.6415    6.1641    8.3974 C   0  0  0  0  0  0  0  0  0  0  0  0
   10.5894    5.6949    7.6312 C   0  0  0  0  0  0  0  0  0  0  0  0
   10.3106    4.3399    7.5313 C   0  0  0  0  0  0  0  0  0  0  0  0
    9.2364    3.8379    6.7508 N   0  0  0  0  0  0  0  0  0  0  0  0
   11.1177    3.5114    8.2191 N   0  0  0  0  0  0  0  0  0  0  0  0
   12.1475    3.9382    8.9718 C   0  0  0  0  0  0  0  0  0  0  0  0
   11.8335    7.2471    8.4537 H   0  0  0  0  0  0  0  0  0  0  0  0
    9.9380    6.3743    7.0752 H   0  0  0  0  0  0  0  0  0  0  0  0
    8.3114    3.6242    7.1706 H   0  0  0  0  0  0  0  0  0  0  0  0
    9.3455    3.6688    5.7302 H   0  0  0  0  0  0  0  0  0  0  0  0
   12.7274    3.1828    9.4793 H   0  0  0  0  0  0  0  0  0  0  0  0
  1  3  2  0
  1  4  1  0
  1  5  1  0
  2  4  1  0
  2  6  1  0
  4  9  1  0
  4 15  1  0
  5  6  1  0
  5  8  1  0
  6  7  2  3
  9 10  2  0
  9 14  1  0
 10 11  1  0
 11 12  2  0
 12 13  1  0
 13 14  2  0
 15 16  2  0
 15 20  1  0
 16 17  1  0
 17 18  2  0
 18 19  1  0
 19 20  2  0
  2 21  1  0
  7 22  1  0
  8 23  1  0
  8 24  1  0
  8 25  1  0
 10 26  1  0
 11 27  1  0
 12 28  1  0
 13 29  1  0
 14 30  1  0
 16 31  1  0
 17 32  1  0
 19 33  1  0
 20 34  1  0
 35 36  2  0
 36 37  1  0
 37 38  2  0
 38 39  1  0
 38 40  1  0
 40 41  2  0
 41 35  1  0
 36 42  1  0
 37 43  1  0
 39 44  1  0
 39 45  1  0
 41 46  1  0
 18 35  1  0
M  END
>  <attachment_point>  (199) 
32

>  <score>  (199) 
<NA>

$$$$
4djw
     RDKit          3D

 56 59  0  0  0  0  0  0  0  0999 V2000
   22.4950   11.8750   22.5810 C   0  0  0  0  0  0  0  0  0  0  0  0
   22.5380    9.4930   22.4640 N   0  0  0  0  0  0  0  0  0  0  0  0
   22.3600   13.0630   22.3480 O   0  0  0  0  0  0  0  0  0  0  0  0
   22.3390   10.6680   21.5610 C   0  0  0  0  0  0  0  0  0  0  0  0
   22.7860   11.3350   23.8120 N   0  0  0  0  0  0  0  0  0  0  0  0
   22.7800    9.9140   23.7010 C   0  0  0  0  0  0  0  0  0  0  0  0
   22.9970    9.1110   24.7490 N   0  0  0  0  0  0  0  0  0  0  0  0
   23.0220   12.1410   25.0180 C   0  0  0  0  0  0  0  0  0  0  0  0
   20.9020   10.6270   21.0050 C   0  0  0  0  0  0  0  0  0  0  0  0
   20.2720    9.4140   20.7470 C   0  0  0  0  0  0  0  0  0  0  0  0
   18.9690    9.3760   20.2600 C   0  0  0  0  0  0  0  0  0  0  0  0
   18.2800   10.5440   20.0210 C   0  0  0  0  0  0  0  0  0  0  0  0
   18.8920   11.7530   20.2590 C   0  0  0  0  0  0  0  0  0  0  0  0
   20.1950   11.7970   20.7440 C   0  0  0  0  0  0  0  0  0  0  0  0
   23.4880   10.6920   20.5300 C   0  0  0  0  0  0  0  0  0  0  0  0
   23.2110   10.7890   19.1730 C   0  0  0  0  0  0  0  0  0  0  0  0
   24.2350   10.8650   18.2430 C   0  0  0  0  0  0  0  0  0  0  0  0
   25.5500   10.8410   18.6560 C   0  0  0  0  0  0  0  0  0  0  0  0
   25.8710   10.7460   20.0070 C   0  0  0  0  0  0  0  0  0  0  0  0
   24.8260   10.6610   20.9430 C   0  0  0  0  0  0  0  0  0  0  0  0
    0.0000    0.0000    0.0000 H   0  0  0  0  0  0  0  0  0  0  0  0
    0.0000    0.0000    0.0000 H   0  0  0  0  0  0  0  0  0  0  0  0
    0.0000    0.0000    0.0000 H   0  0  0  0  0  0  0  0  0  0  0  0
    0.0000    0.0000    0.0000 H   0  0  0  0  0  0  0  0  0  0  0  0
    0.0000    0.0000    0.0000 H   0  0  0  0  0  0  0  0  0  0  0  0
    0.0000    0.0000    0.0000 H   0  0  0  0  0  0  0  0  0  0  0  0
    0.0000    0.0000    0.0000 H   0  0  0  0  0  0  0  0  0  0  0  0
    0.0000    0.0000    0.0000 H   0  0  0  0  0  0  0  0  0  0  0  0
    0.0000    0.0000    0.0000 H   0  0  0  0  0  0  0  0  0  0  0  0
    0.0000    0.0000    0.0000 H   0  0  0  0  0  0  0  0  0  0  0  0
    0.0000    0.0000    0.0000 H   0  0  0  0  0  0  0  0  0  0  0  0
    0.0000    0.0000    0.0000 H   0  0  0  0  0  0  0  0  0  0  0  0
    0.0000    0.0000    0.0000 H   0  0  0  0  0  0  0  0  0  0  0  0
    0.0000    0.0000    0.0000 H   0  0  0  0  0  0  0  0  0  0  0  0
   12.4518    5.2834    9.0920 C   0  0  0  0  0  0  0  0  0  0  0  0
   12.6696    3.8986    8.5217 C   0  0  0  0  0  0  0  0  0  0  0  0
   13.8373    3.8762    7.7113 N   0  0  0  0  0  0  0  0  0  0  0  0
   14.1988    2.5109    7.3178 C   0  0  0  0  0  0  0  0  0  0  0  0
   15.6514    2.5973    6.8690 C   0  0  0  0  0  0  0  0  0  0  0  0
   15.6225    3.4282    5.5773 C   0  0  0  0  0  0  0  0  0  0  0  0
   15.1267    4.8125    5.8677 C   0  0  0  0  0  0  0  0  0  0  0  0
   13.7598    4.7078    6.5300 C   0  0  0  0  0  0  0  0  0  0  0  0
   12.2157    6.0285    8.3246 H   0  0  0  0  0  0  0  0  0  0  0  0
   11.6203    5.2167    9.8847 H   0  0  0  0  0  0  0  0  0  0  0  0
   11.7955    3.6523    7.8395 H   0  0  0  0  0  0  0  0  0  0  0  0
   12.6350    3.0940    9.2821 H   0  0  0  0  0  0  0  0  0  0  0  0
   13.5473    2.1328    6.5255 H   0  0  0  0  0  0  0  0  0  0  0  0
   14.1360    1.8759    8.1903 H   0  0  0  0  0  0  0  0  0  0  0  0
   16.1712    3.1780    7.6344 H   0  0  0  0  0  0  0  0  0  0  0  0
   16.1029    1.6236    6.6613 H   0  0  0  0  0  0  0  0  0  0  0  0
   14.9384    2.9299    4.8902 H   0  0  0  0  0  0  0  0  0  0  0  0
   16.6652    3.4797    5.1862 H   0  0  0  0  0  0  0  0  0  0  0  0
   15.0296    5.3557    4.9164 H   0  0  0  0  0  0  0  0  0  0  0  0
   15.7794    5.3501    6.5774 H   0  0  0  0  0  0  0  0  0  0  0  0
   13.0132    4.3333    5.7962 H   0  0  0  0  0  0  0  0  0  0  0  0
   13.4435    5.7113    6.8328 H   0  0  0  0  0  0  0  0  0  0  0  0
  1  3  2  0
  1  4  1  0
  1  5  1  0
  2  4  1  0
  2  6  1  0
  4  9  1  0
  4 15  1  0
  5  6  1  0
  5  8  1  0
  6  7  2  3
  9 10  2  0
  9 14  1  0
 10 11  1  0
 11 12  2  0
 12 13  1  0
 13 14  2  0
 15 16  2  0
 15 20  1  0
 16 17  1  0
 17 18  2  0
 18 19  1  0
 19 20  2  0
  2 21  1  0
  7 22  1  0
  8 23  1  0
  8 24  1  0
  8 25  1  0
 10 26  1  0
 11 27  1  0
 12 28  1  0
 13 29  1  0
 14 30  1  0
 16 31  1  0
 17 32  1  0
 19 33  1  0
 20 34  1  0
 35 36  1  0
 36 37  1  0
 37 38  1  0
 38 39  1  0
 39 40  1  0
 40 41  1  0
 41 42  1  0
 42 37  1  0
 35 43  1  0
 35 44  1  0
 36 45  1  0
 36 46  1  0
 38 47  1  0
 38 48  1  0
 39 49  1  0
 39 50  1  0
 40 51  1  0
 40 52  1  0
 41 53  1  0
 41 54  1  0
 42 55  1  0
 42 56  1  0
 18 35  1  0
M  END
>  <attachment_point>  (200) 
32

>  <score>  (200) 
<NA>

$$$$
4djw
     RDKit          3D

 42 45  0  0  0  0  0  0  0  0999 V2000
   22.4950   11.8750   22.5810 C   0  0  0  0  0  0  0  0  0  0  0  0
   22.5380    9.4930   22.4640 N   0  0  0  0  0  0  0  0  0  0  0  0
   22.3600   13.0630   22.3480 O   0  0  0  0  0  0  0  0  0  0  0  0
   22.3390   10.6680   21.5610 C   0  0  0  0  0  0  0  0  0  0  0  0
   22.7860   11.3350   23.8120 N   0  0  0  0  0  0  0  0  0  0  0  0
   22.7800    9.9140   23.7010 C   0  0  0  0  0  0  0  0  0  0  0  0
   22.9970    9.1110   24.7490 N   0  0  0  0  0  0  0  0  0  0  0  0
   23.0220   12.1410   25.0180 C   0  0  0  0  0  0  0  0  0  0  0  0
   20.9020   10.6270   21.0050 C   0  0  0  0  0  0  0  0  0  0  0  0
   20.2720    9.4140   20.7470 C   0  0  0  0  0  0  0  0  0  0  0  0
   18.9690    9.3760   20.2600 C   0  0  0  0  0  0  0  0  0  0  0  0
   18.2800   10.5440   20.0210 C   0  0  0  0  0  0  0  0  0  0  0  0
   18.8920   11.7530   20.2590 C   0  0  0  0  0  0  0  0  0  0  0  0
   20.1950   11.7970   20.7440 C   0  0  0  0  0  0  0  0  0  0  0  0
   23.4880   10.6920   20.5300 C   0  0  0  0  0  0  0  0  0  0  0  0
   23.2110   10.7890   19.1730 C   0  0  0  0  0  0  0  0  0  0  0  0
   24.2350   10.8650   18.2430 C   0  0  0  0  0  0  0  0  0  0  0  0
   25.5500   10.8410   18.6560 C   0  0  0  0  0  0  0  0  0  0  0  0
   25.8710   10.7460   20.0070 C   0  0  0  0  0  0  0  0  0  0  0  0
   24.8260   10.6610   20.9430 C   0  0  0  0  0  0  0  0  0  0  0  0
    0.0000    0.0000    0.0000 H   0  0  0  0  0  0  0  0  0  0  0  0
    0.0000    0.0000    0.0000 H   0  0  0  0  0  0  0  0  0  0  0  0
    0.0000    0.0000    0.0000 H   0  0  0  0  0  0  0  0  0  0  0  0
    0.0000    0.0000    0.0000 H   0  0  0  0  0  0  0  0  0  0  0  0
    0.0000    0.0000    0.0000 H   0  0  0  0  0  0  0  0  0  0  0  0
    0.0000    0.0000    0.0000 H   0  0  0  0  0  0  0  0  0  0  0  0
    0.0000    0.0000    0.0000 H   0  0  0  0  0  0  0  0  0  0  0  0
    0.0000    0.0000    0.0000 H   0  0  0  0  0  0  0  0  0  0  0  0
    0.0000    0.0000    0.0000 H   0  0  0  0  0  0  0  0  0  0  0  0
    0.0000    0.0000    0.0000 H   0  0  0  0  0  0  0  0  0  0  0  0
    0.0000    0.0000    0.0000 H   0  0  0  0  0  0  0  0  0  0  0  0
    0.0000    0.0000    0.0000 H   0  0  0  0  0  0  0  0  0  0  0  0
    0.0000    0.0000    0.0000 H   0  0  0  0  0  0  0  0  0  0  0  0
    0.0000    0.0000    0.0000 H   0  0  0  0  0  0  0  0  0  0  0  0
   12.4343    5.2759    9.0792 C   0  0  0  0  0  0  0  0  0  0  0  0
   12.2678    3.9741    8.6833 C   0  0  0  0  0  0  0  0  0  0  0  0
   11.1850    3.6928    7.9324 C   0  0  0  0  0  0  0  0  0  0  0  0
   10.3488    4.7386    7.6338 C   0  0  0  0  0  0  0  0  0  0  0  0
    8.8704    4.6651    6.6777 Cl  0  0  0  0  0  0  0  0  0  0  0  0
   11.0904    6.0629    8.4003 S   0  0  0  0  0  0  0  0  0  0  0  0
   13.0032    3.1726    8.9721 H   0  0  0  0  0  0  0  0  0  0  0  0
   10.9831    2.6511    7.5719 H   0  0  0  0  0  0  0  0  0  0  0  0
  1  3  2  0
  1  4  1  0
  1  5  1  0
  2  4  1  0
  2  6  1  0
  4  9  1  0
  4 15  1  0
  5  6  1  0
  5  8  1  0
  6  7  2  3
  9 10  2  0
  9 14  1  0
 10 11  1  0
 11 12  2  0
 12 13  1  0
 13 14  2  0
 15 16  2  0
 15 20  1  0
 16 17  1  0
 17 18  2  0
 18 19  1  0
 19 20  2  0
  2 21  1  0
  7 22  1  0
  8 23  1  0
  8 24  1  0
  8 25  1  0
 10 26  1  0
 11 27  1  0
 12 28  1  0
 13 29  1  0
 14 30  1  0
 16 31  1  0
 17 32  1  0
 19 33  1  0
 20 34  1  0
 35 36  2  0
 36 37  1  0
 37 38  2  0
 38 39  1  0
 38 40  1  0
 40 35  1  0
 36 41  1  0
 37 42  1  0
 18 35  1  0
M  END
>  <attachment_point>  (201) 
32

>  <score>  (201) 
<NA>

$$$$
4djw
     RDKit          3D

 41 43  0  0  0  0  0  0  0  0999 V2000
   22.4950   11.8750   22.5810 C   0  0  0  0  0  0  0  0  0  0  0  0
   22.5380    9.4930   22.4640 N   0  0  0  0  0  0  0  0  0  0  0  0
   22.3600   13.0630   22.3480 O   0  0  0  0  0  0  0  0  0  0  0  0
   22.3390   10.6680   21.5610 C   0  0  0  0  0  0  0  0  0  0  0  0
   22.7860   11.3350   23.8120 N   0  0  0  0  0  0  0  0  0  0  0  0
   22.7800    9.9140   23.7010 C   0  0  0  0  0  0  0  0  0  0  0  0
   22.9970    9.1110   24.7490 N   0  0  0  0  0  0  0  0  0  0  0  0
   23.0220   12.1410   25.0180 C   0  0  0  0  0  0  0  0  0  0  0  0
   20.9020   10.6270   21.0050 C   0  0  0  0  0  0  0  0  0  0  0  0
   20.2720    9.4140   20.7470 C   0  0  0  0  0  0  0  0  0  0  0  0
   18.9690    9.3760   20.2600 C   0  0  0  0  0  0  0  0  0  0  0  0
   18.2800   10.5440   20.0210 C   0  0  0  0  0  0  0  0  0  0  0  0
   18.8920   11.7530   20.2590 C   0  0  0  0  0  0  0  0  0  0  0  0
   20.1950   11.7970   20.7440 C   0  0  0  0  0  0  0  0  0  0  0  0
   23.4880   10.6920   20.5300 C   0  0  0  0  0  0  0  0  0  0  0  0
   23.2110   10.7890   19.1730 C   0  0  0  0  0  0  0  0  0  0  0  0
   24.2350   10.8650   18.2430 C   0  0  0  0  0  0  0  0  0  0  0  0
   25.5500   10.8410   18.6560 C   0  0  0  0  0  0  0  0  0  0  0  0
   25.8710   10.7460   20.0070 C   0  0  0  0  0  0  0  0  0  0  0  0
   24.8260   10.6610   20.9430 C   0  0  0  0  0  0  0  0  0  0  0  0
    0.0000    0.0000    0.0000 H   0  0  0  0  0  0  0  0  0  0  0  0
    0.0000    0.0000    0.0000 H   0  0  0  0  0  0  0  0  0  0  0  0
    0.0000    0.0000    0.0000 H   0  0  0  0  0  0  0  0  0  0  0  0
    0.0000    0.0000    0.0000 H   0  0  0  0  0  0  0  0  0  0  0  0
    0.0000    0.0000    0.0000 H   0  0  0  0  0  0  0  0  0  0  0  0
    0.0000    0.0000    0.0000 H   0  0  0  0  0  0  0  0  0  0  0  0
    0.0000    0.0000    0.0000 H   0  0  0  0  0  0  0  0  0  0  0  0
    0.0000    0.0000    0.0000 H   0  0  0  0  0  0  0  0  0  0  0  0
    0.0000    0.0000    0.0000 H   0  0  0  0  0  0  0  0  0  0  0  0
    0.0000    0.0000    0.0000 H   0  0  0  0  0  0  0  0  0  0  0  0
    0.0000    0.0000    0.0000 H   0  0  0  0  0  0  0  0  0  0  0  0
    0.0000    0.0000    0.0000 H   0  0  0  0  0  0  0  0  0  0  0  0
    0.0000    0.0000    0.0000 H   0  0  0  0  0  0  0  0  0  0  0  0
    0.0000    0.0000    0.0000 H   0  0  0  0  0  0  0  0  0  0  0  0
   12.4082    5.2649    9.0602 C   0  0  0  0  0  0  0  0  0  0  0  0
   11.3286    5.4060    9.6352 O   0  0  0  0  0  0  0  0  0  0  0  0
   12.6729    4.7408    7.8055 N   0  0  0  0  0  0  0  0  0  0  0  0
   11.6203    4.2900    7.0273 N   0  0  0  0  0  0  0  0  0  0  0  0
   13.6386    4.6512    7.3748 H   0  0  0  0  0  0  0  0  0  0  0  0
   11.1098    3.4883    7.3918 H   0  0  0  0  0  0  0  0  0  0  0  0
   11.1015    5.0047    6.5268 H   0  0  0  0  0  0  0  0  0  0  0  0
  1  3  2  0
  1  4  1  0
  1  5  1  0
  2  4  1  0
  2  6  1  0
  4  9  1  0
  4 15  1  0
  5  6  1  0
  5  8  1  0
  6  7  2  3
  9 10  2  0
  9 14  1  0
 10 11  1  0
 11 12  2  0
 12 13  1  0
 13 14  2  0
 15 16  2  0
 15 20  1  0
 16 17  1  0
 17 18  2  0
 18 19  1  0
 19 20  2  0
  2 21  1  0
  7 22  1  0
  8 23  1  0
  8 24  1  0
  8 25  1  0
 10 26  1  0
 11 27  1  0
 12 28  1  0
 13 29  1  0
 14 30  1  0
 16 31  1  0
 17 32  1  0
 19 33  1  0
 20 34  1  0
 35 36  2  0
 35 37  1  0
 37 38  1  0
 37 39  1  0
 38 40  1  0
 38 41  1  0
 18 35  1  0
M  END
>  <attachment_point>  (202) 
32

>  <score>  (202) 
<NA>

$$$$
4djw
     RDKit          3D

 51 54  0  0  0  0  0  0  0  0999 V2000
   22.4950   11.8750   22.5810 C   0  0  0  0  0  0  0  0  0  0  0  0
   22.5380    9.4930   22.4640 N   0  0  0  0  0  0  0  0  0  0  0  0
   22.3600   13.0630   22.3480 O   0  0  0  0  0  0  0  0  0  0  0  0
   22.3390   10.6680   21.5610 C   0  0  0  0  0  0  0  0  0  0  0  0
   22.7860   11.3350   23.8120 N   0  0  0  0  0  0  0  0  0  0  0  0
   22.7800    9.9140   23.7010 C   0  0  0  0  0  0  0  0  0  0  0  0
   22.9970    9.1110   24.7490 N   0  0  0  0  0  0  0  0  0  0  0  0
   23.0220   12.1410   25.0180 C   0  0  0  0  0  0  0  0  0  0  0  0
   20.9020   10.6270   21.0050 C   0  0  0  0  0  0  0  0  0  0  0  0
   20.2720    9.4140   20.7470 C   0  0  0  0  0  0  0  0  0  0  0  0
   18.9690    9.3760   20.2600 C   0  0  0  0  0  0  0  0  0  0  0  0
   18.2800   10.5440   20.0210 C   0  0  0  0  0  0  0  0  0  0  0  0
   18.8920   11.7530   20.2590 C   0  0  0  0  0  0  0  0  0  0  0  0
   20.1950   11.7970   20.7440 C   0  0  0  0  0  0  0  0  0  0  0  0
   23.4880   10.6920   20.5300 C   0  0  0  0  0  0  0  0  0  0  0  0
   23.2110   10.7890   19.1730 C   0  0  0  0  0  0  0  0  0  0  0  0
   24.2350   10.8650   18.2430 C   0  0  0  0  0  0  0  0  0  0  0  0
   25.5500   10.8410   18.6560 C   0  0  0  0  0  0  0  0  0  0  0  0
   25.8710   10.7460   20.0070 C   0  0  0  0  0  0  0  0  0  0  0  0
   24.8260   10.6610   20.9430 C   0  0  0  0  0  0  0  0  0  0  0  0
    0.0000    0.0000    0.0000 H   0  0  0  0  0  0  0  0  0  0  0  0
    0.0000    0.0000    0.0000 H   0  0  0  0  0  0  0  0  0  0  0  0
    0.0000    0.0000    0.0000 H   0  0  0  0  0  0  0  0  0  0  0  0
    0.0000    0.0000    0.0000 H   0  0  0  0  0  0  0  0  0  0  0  0
    0.0000    0.0000    0.0000 H   0  0  0  0  0  0  0  0  0  0  0  0
    0.0000    0.0000    0.0000 H   0  0  0  0  0  0  0  0  0  0  0  0
    0.0000    0.0000    0.0000 H   0  0  0  0  0  0  0  0  0  0  0  0
    0.0000    0.0000    0.0000 H   0  0  0  0  0  0  0  0  0  0  0  0
    0.0000    0.0000    0.0000 H   0  0  0  0  0  0  0  0  0  0  0  0
    0.0000    0.0000    0.0000 H   0  0  0  0  0  0  0  0  0  0  0  0
    0.0000    0.0000    0.0000 H   0  0  0  0  0  0  0  0  0  0  0  0
    0.0000    0.0000    0.0000 H   0  0  0  0  0  0  0  0  0  0  0  0
    0.0000    0.0000    0.0000 H   0  0  0  0  0  0  0  0  0  0  0  0
    0.0000    0.0000    0.0000 H   0  0  0  0  0  0  0  0  0  0  0  0
   12.4691    5.2907    9.1047 N   0  0  0  0  0  0  0  0  0  0  0  0
   11.6486    4.3107    9.7491 C   0  0  0  0  0  0  0  0  0  0  0  0
   12.4306    3.0468   10.1164 C   0  0  0  0  0  0  0  0  0  0  0  0
   12.9751    2.5366    8.7759 C   0  0  0  0  0  0  0  0  0  0  0  0
   13.5204    1.2863    8.8717 O   0  0  0  0  0  0  0  0  0  0  0  0
   13.9625    3.6007    8.3393 C   0  0  0  0  0  0  0  0  0  0  0  0
   13.0936    4.7824    7.8850 C   0  0  0  0  0  0  0  0  0  0  0  0
   10.8931    3.9683    8.9951 H   0  0  0  0  0  0  0  0  0  0  0  0
   11.1678    4.7605   10.6113 H   0  0  0  0  0  0  0  0  0  0  0  0
   13.2806    3.3621   10.7647 H   0  0  0  0  0  0  0  0  0  0  0  0
   11.7594    2.3404   10.5924 H   0  0  0  0  0  0  0  0  0  0  0  0
   12.0793    2.5204    8.0963 H   0  0  0  0  0  0  0  0  0  0  0  0
   13.2402    0.7286    8.0797 H   0  0  0  0  0  0  0  0  0  0  0  0
   14.6612    3.2762    7.5806 H   0  0  0  0  0  0  0  0  0  0  0  0
   14.4991    3.9512    9.2424 H   0  0  0  0  0  0  0  0  0  0  0  0
   12.3134    4.3480    7.2113 H   0  0  0  0  0  0  0  0  0  0  0  0
   13.6753    5.5700    7.4156 H   0  0  0  0  0  0  0  0  0  0  0  0
  1  3  2  0
  1  4  1  0
  1  5  1  0
  2  4  1  0
  2  6  1  0
  4  9  1  0
  4 15  1  0
  5  6  1  0
  5  8  1  0
  6  7  2  3
  9 10  2  0
  9 14  1  0
 10 11  1  0
 11 12  2  0
 12 13  1  0
 13 14  2  0
 15 16  2  0
 15 20  1  0
 16 17  1  0
 17 18  2  0
 18 19  1  0
 19 20  2  0
  2 21  1  0
  7 22  1  0
  8 23  1  0
  8 24  1  0
  8 25  1  0
 10 26  1  0
 11 27  1  0
 12 28  1  0
 13 29  1  0
 14 30  1  0
 16 31  1  0
 17 32  1  0
 19 33  1  0
 20 34  1  0
 35 36  1  0
 36 37  1  0
 37 38  1  0
 38 39  1  0
 38 40  1  0
 40 41  1  0
 41 35  1  0
 36 42  1  0
 36 43  1  0
 37 44  1  0
 37 45  1  0
 38 46  1  0
 39 47  1  0
 40 48  1  0
 40 49  1  0
 41 50  1  0
 41 51  1  0
 18 35  1  0
M  END
>  <attachment_point>  (203) 
32

>  <score>  (203) 
<NA>

$$$$
4djw
     RDKit          3D

 50 53  0  0  0  0  0  0  0  0999 V2000
   22.4950   11.8750   22.5810 C   0  0  0  0  0  0  0  0  0  0  0  0
   22.5380    9.4930   22.4640 N   0  0  0  0  0  0  0  0  0  0  0  0
   22.3600   13.0630   22.3480 O   0  0  0  0  0  0  0  0  0  0  0  0
   22.3390   10.6680   21.5610 C   0  0  0  0  0  0  0  0  0  0  0  0
   22.7860   11.3350   23.8120 N   0  0  0  0  0  0  0  0  0  0  0  0
   22.7800    9.9140   23.7010 C   0  0  0  0  0  0  0  0  0  0  0  0
   22.9970    9.1110   24.7490 N   0  0  0  0  0  0  0  0  0  0  0  0
   23.0220   12.1410   25.0180 C   0  0  0  0  0  0  0  0  0  0  0  0
   20.9020   10.6270   21.0050 C   0  0  0  0  0  0  0  0  0  0  0  0
   20.2720    9.4140   20.7470 C   0  0  0  0  0  0  0  0  0  0  0  0
   18.9690    9.3760   20.2600 C   0  0  0  0  0  0  0  0  0  0  0  0
   18.2800   10.5440   20.0210 C   0  0  0  0  0  0  0  0  0  0  0  0
   18.8920   11.7530   20.2590 C   0  0  0  0  0  0  0  0  0  0  0  0
   20.1950   11.7970   20.7440 C   0  0  0  0  0  0  0  0  0  0  0  0
   23.4880   10.6920   20.5300 C   0  0  0  0  0  0  0  0  0  0  0  0
   23.2110   10.7890   19.1730 C   0  0  0  0  0  0  0  0  0  0  0  0
   24.2350   10.8650   18.2430 C   0  0  0  0  0  0  0  0  0  0  0  0
   25.5500   10.8410   18.6560 C   0  0  0  0  0  0  0  0  0  0  0  0
   25.8710   10.7460   20.0070 C   0  0  0  0  0  0  0  0  0  0  0  0
   24.8260   10.6610   20.9430 C   0  0  0  0  0  0  0  0  0  0  0  0
    0.0000    0.0000    0.0000 H   0  0  0  0  0  0  0  0  0  0  0  0
    0.0000    0.0000    0.0000 H   0  0  0  0  0  0  0  0  0  0  0  0
    0.0000    0.0000    0.0000 H   0  0  0  0  0  0  0  0  0  0  0  0
    0.0000    0.0000    0.0000 H   0  0  0  0  0  0  0  0  0  0  0  0
    0.0000    0.0000    0.0000 H   0  0  0  0  0  0  0  0  0  0  0  0
    0.0000    0.0000    0.0000 H   0  0  0  0  0  0  0  0  0  0  0  0
    0.0000    0.0000    0.0000 H   0  0  0  0  0  0  0  0  0  0  0  0
    0.0000    0.0000    0.0000 H   0  0  0  0  0  0  0  0  0  0  0  0
    0.0000    0.0000    0.0000 H   0  0  0  0  0  0  0  0  0  0  0  0
    0.0000    0.0000    0.0000 H   0  0  0  0  0  0  0  0  0  0  0  0
    0.0000    0.0000    0.0000 H   0  0  0  0  0  0  0  0  0  0  0  0
    0.0000    0.0000    0.0000 H   0  0  0  0  0  0  0  0  0  0  0  0
    0.0000    0.0000    0.0000 H   0  0  0  0  0  0  0  0  0  0  0  0
    0.0000    0.0000    0.0000 H   0  0  0  0  0  0  0  0  0  0  0  0
   12.4135    5.2671    9.0641 C   0  0  0  0  0  0  0  0  0  0  0  0
   11.1952    5.8187    9.2686 C   0  0  0  0  0  0  0  0  0  0  0  0
   10.1023    5.3869    8.5032 C   0  0  0  0  0  0  0  0  0  0  0  0
   10.3330    4.4051    7.5661 C   0  0  0  0  0  0  0  0  0  0  0  0
   11.5727    3.8401    7.3541 C   0  0  0  0  0  0  0  0  0  0  0  0
   11.7683    2.8038    6.3509 C   0  0  0  0  0  0  0  0  0  0  0  0
   10.6074    2.3609    5.5540 C   0  0  0  0  0  0  0  0  0  0  0  0
   12.8856    2.2735    6.1383 O   0  0  0  0  0  0  0  0  0  0  0  0
   12.6396    4.2946    8.1351 C   0  0  0  0  0  0  0  0  0  0  0  0
   10.9856    6.5920    9.9984 H   0  0  0  0  0  0  0  0  0  0  0  0
    9.1112    5.8098    8.6432 H   0  0  0  0  0  0  0  0  0  0  0  0
    9.4706    4.0669    6.9648 H   0  0  0  0  0  0  0  0  0  0  0  0
   10.3994    3.1765    4.8144 H   0  0  0  0  0  0  0  0  0  0  0  0
   10.8179    1.4400    4.9727 H   0  0  0  0  0  0  0  0  0  0  0  0
    9.7352    2.1931    6.2028 H   0  0  0  0  0  0  0  0  0  0  0  0
   13.6192    3.8743    7.9944 H   0  0  0  0  0  0  0  0  0  0  0  0
  1  3  2  0
  1  4  1  0
  1  5  1  0
  2  4  1  0
  2  6  1  0
  4  9  1  0
  4 15  1  0
  5  6  1  0
  5  8  1  0
  6  7  2  3
  9 10  2  0
  9 14  1  0
 10 11  1  0
 11 12  2  0
 12 13  1  0
 13 14  2  0
 15 16  2  0
 15 20  1  0
 16 17  1  0
 17 18  2  0
 18 19  1  0
 19 20  2  0
  2 21  1  0
  7 22  1  0
  8 23  1  0
  8 24  1  0
  8 25  1  0
 10 26  1  0
 11 27  1  0
 12 28  1  0
 13 29  1  0
 14 30  1  0
 16 31  1  0
 17 32  1  0
 19 33  1  0
 20 34  1  0
 35 36  2  0
 36 37  1  0
 37 38  2  0
 38 39  1  0
 39 40  1  0
 40 41  1  0
 40 42  2  0
 39 43  2  0
 43 35  1  0
 36 44  1  0
 37 45  1  0
 38 46  1  0
 41 47  1  0
 41 48  1  0
 41 49  1  0
 43 50  1  0
 18 35  1  0
M  END
>  <attachment_point>  (204) 
32

>  <score>  (204) 
<NA>

$$$$
4djw
     RDKit          3D

 47 50  0  0  0  0  0  0  0  0999 V2000
   22.4950   11.8750   22.5810 C   0  0  0  0  0  0  0  0  0  0  0  0
   22.5380    9.4930   22.4640 N   0  0  0  0  0  0  0  0  0  0  0  0
   22.3600   13.0630   22.3480 O   0  0  0  0  0  0  0  0  0  0  0  0
   22.3390   10.6680   21.5610 C   0  0  0  0  0  0  0  0  0  0  0  0
   22.7860   11.3350   23.8120 N   0  0  0  0  0  0  0  0  0  0  0  0
   22.7800    9.9140   23.7010 C   0  0  0  0  0  0  0  0  0  0  0  0
   22.9970    9.1110   24.7490 N   0  0  0  0  0  0  0  0  0  0  0  0
   23.0220   12.1410   25.0180 C   0  0  0  0  0  0  0  0  0  0  0  0
   20.9020   10.6270   21.0050 C   0  0  0  0  0  0  0  0  0  0  0  0
   20.2720    9.4140   20.7470 C   0  0  0  0  0  0  0  0  0  0  0  0
   18.9690    9.3760   20.2600 C   0  0  0  0  0  0  0  0  0  0  0  0
   18.2800   10.5440   20.0210 C   0  0  0  0  0  0  0  0  0  0  0  0
   18.8920   11.7530   20.2590 C   0  0  0  0  0  0  0  0  0  0  0  0
   20.1950   11.7970   20.7440 C   0  0  0  0  0  0  0  0  0  0  0  0
   23.4880   10.6920   20.5300 C   0  0  0  0  0  0  0  0  0  0  0  0
   23.2110   10.7890   19.1730 C   0  0  0  0  0  0  0  0  0  0  0  0
   24.2350   10.8650   18.2430 C   0  0  0  0  0  0  0  0  0  0  0  0
   25.5500   10.8410   18.6560 C   0  0  0  0  0  0  0  0  0  0  0  0
   25.8710   10.7460   20.0070 C   0  0  0  0  0  0  0  0  0  0  0  0
   24.8260   10.6610   20.9430 C   0  0  0  0  0  0  0  0  0  0  0  0
    0.0000    0.0000    0.0000 H   0  0  0  0  0  0  0  0  0  0  0  0
    0.0000    0.0000    0.0000 H   0  0  0  0  0  0  0  0  0  0  0  0
    0.0000    0.0000    0.0000 H   0  0  0  0  0  0  0  0  0  0  0  0
    0.0000    0.0000    0.0000 H   0  0  0  0  0  0  0  0  0  0  0  0
    0.0000    0.0000    0.0000 H   0  0  0  0  0  0  0  0  0  0  0  0
    0.0000    0.0000    0.0000 H   0  0  0  0  0  0  0  0  0  0  0  0
    0.0000    0.0000    0.0000 H   0  0  0  0  0  0  0  0  0  0  0  0
    0.0000    0.0000    0.0000 H   0  0  0  0  0  0  0  0  0  0  0  0
    0.0000    0.0000    0.0000 H   0  0  0  0  0  0  0  0  0  0  0  0
    0.0000    0.0000    0.0000 H   0  0  0  0  0  0  0  0  0  0  0  0
    0.0000    0.0000    0.0000 H   0  0  0  0  0  0  0  0  0  0  0  0
    0.0000    0.0000    0.0000 H   0  0  0  0  0  0  0  0  0  0  0  0
    0.0000    0.0000    0.0000 H   0  0  0  0  0  0  0  0  0  0  0  0
    0.0000    0.0000    0.0000 H   0  0  0  0  0  0  0  0  0  0  0  0
   12.4451    5.2805    9.0871 C   0  0  0  0  0  0  0  0  0  0  0  0
   11.7336    4.2084    9.5838 C   0  0  0  0  0  0  0  0  0  0  0  0
   10.6787    3.7577    8.8176 C   0  0  0  0  0  0  0  0  0  0  0  0
   10.3689    4.3769    7.6008 C   0  0  0  0  0  0  0  0  0  0  0  0
   11.1132    5.4503    7.1448 C   0  0  0  0  0  0  0  0  0  0  0  0
   10.8232    6.1418    5.8583 C   0  0  0  0  0  0  0  0  0  0  0  0
   12.1370    5.8707    7.9110 N   0  0  0  0  0  0  0  0  0  0  0  0
   11.9777    3.7335   10.5255 H   0  0  0  0  0  0  0  0  0  0  0  0
   10.1022    2.9144    9.1867 H   0  0  0  0  0  0  0  0  0  0  0  0
    9.5546    4.0198    7.0215 H   0  0  0  0  0  0  0  0  0  0  0  0
   10.3016    7.1050    6.0064 H   0  0  0  0  0  0  0  0  0  0  0  0
   10.1536    5.5153    5.2236 H   0  0  0  0  0  0  0  0  0  0  0  0
   11.7478    6.3210    5.2714 H   0  0  0  0  0  0  0  0  0  0  0  0
  1  3  2  0
  1  4  1  0
  1  5  1  0
  2  4  1  0
  2  6  1  0
  4  9  1  0
  4 15  1  0
  5  6  1  0
  5  8  1  0
  6  7  2  3
  9 10  2  0
  9 14  1  0
 10 11  1  0
 11 12  2  0
 12 13  1  0
 13 14  2  0
 15 16  2  0
 15 20  1  0
 16 17  1  0
 17 18  2  0
 18 19  1  0
 19 20  2  0
  2 21  1  0
  7 22  1  0
  8 23  1  0
  8 24  1  0
  8 25  1  0
 10 26  1  0
 11 27  1  0
 12 28  1  0
 13 29  1  0
 14 30  1  0
 16 31  1  0
 17 32  1  0
 19 33  1  0
 20 34  1  0
 35 36  2  0
 36 37  1  0
 37 38  2  0
 38 39  1  0
 39 40  1  0
 39 41  2  0
 41 35  1  0
 36 42  1  0
 37 43  1  0
 38 44  1  0
 40 45  1  0
 40 46  1  0
 40 47  1  0
 18 35  1  0
M  END
>  <attachment_point>  (205) 
32

>  <score>  (205) 
<NA>

$$$$
4djw
     RDKit          3D

 44 47  0  0  0  0  0  0  0  0999 V2000
   22.4950   11.8750   22.5810 C   0  0  0  0  0  0  0  0  0  0  0  0
   22.5380    9.4930   22.4640 N   0  0  0  0  0  0  0  0  0  0  0  0
   22.3600   13.0630   22.3480 O   0  0  0  0  0  0  0  0  0  0  0  0
   22.3390   10.6680   21.5610 C   0  0  0  0  0  0  0  0  0  0  0  0
   22.7860   11.3350   23.8120 N   0  0  0  0  0  0  0  0  0  0  0  0
   22.7800    9.9140   23.7010 C   0  0  0  0  0  0  0  0  0  0  0  0
   22.9970    9.1110   24.7490 N   0  0  0  0  0  0  0  0  0  0  0  0
   23.0220   12.1410   25.0180 C   0  0  0  0  0  0  0  0  0  0  0  0
   20.9020   10.6270   21.0050 C   0  0  0  0  0  0  0  0  0  0  0  0
   20.2720    9.4140   20.7470 C   0  0  0  0  0  0  0  0  0  0  0  0
   18.9690    9.3760   20.2600 C   0  0  0  0  0  0  0  0  0  0  0  0
   18.2800   10.5440   20.0210 C   0  0  0  0  0  0  0  0  0  0  0  0
   18.8920   11.7530   20.2590 C   0  0  0  0  0  0  0  0  0  0  0  0
   20.1950   11.7970   20.7440 C   0  0  0  0  0  0  0  0  0  0  0  0
   23.4880   10.6920   20.5300 C   0  0  0  0  0  0  0  0  0  0  0  0
   23.2110   10.7890   19.1730 C   0  0  0  0  0  0  0  0  0  0  0  0
   24.2350   10.8650   18.2430 C   0  0  0  0  0  0  0  0  0  0  0  0
   25.5500   10.8410   18.6560 C   0  0  0  0  0  0  0  0  0  0  0  0
   25.8710   10.7460   20.0070 C   0  0  0  0  0  0  0  0  0  0  0  0
   24.8260   10.6610   20.9430 C   0  0  0  0  0  0  0  0  0  0  0  0
    0.0000    0.0000    0.0000 H   0  0  0  0  0  0  0  0  0  0  0  0
    0.0000    0.0000    0.0000 H   0  0  0  0  0  0  0  0  0  0  0  0
    0.0000    0.0000    0.0000 H   0  0  0  0  0  0  0  0  0  0  0  0
    0.0000    0.0000    0.0000 H   0  0  0  0  0  0  0  0  0  0  0  0
    0.0000    0.0000    0.0000 H   0  0  0  0  0  0  0  0  0  0  0  0
    0.0000    0.0000    0.0000 H   0  0  0  0  0  0  0  0  0  0  0  0
    0.0000    0.0000    0.0000 H   0  0  0  0  0  0  0  0  0  0  0  0
    0.0000    0.0000    0.0000 H   0  0  0  0  0  0  0  0  0  0  0  0
    0.0000    0.0000    0.0000 H   0  0  0  0  0  0  0  0  0  0  0  0
    0.0000    0.0000    0.0000 H   0  0  0  0  0  0  0  0  0  0  0  0
    0.0000    0.0000    0.0000 H   0  0  0  0  0  0  0  0  0  0  0  0
    0.0000    0.0000    0.0000 H   0  0  0  0  0  0  0  0  0  0  0  0
    0.0000    0.0000    0.0000 H   0  0  0  0  0  0  0  0  0  0  0  0
    0.0000    0.0000    0.0000 H   0  0  0  0  0  0  0  0  0  0  0  0
   12.4083    5.2649    9.0603 C   0  0  0  0  0  0  0  0  0  0  0  0
   12.6402    4.7152    7.8346 C   0  0  0  0  0  0  0  0  0  0  0  0
   11.0556    4.3445    7.3266 S   0  0  0  0  0  0  0  0  0  0  0  0
   10.2025    4.9138    8.7083 C   0  0  0  0  0  0  0  0  0  0  0  0
    8.7139    4.9061    8.9646 C   0  0  0  0  0  0  0  0  0  0  0  0
   11.1788    5.3503    9.4691 N   0  0  0  0  0  0  0  0  0  0  0  0
   13.6114    4.5854    7.3774 H   0  0  0  0  0  0  0  0  0  0  0  0
    8.2672    3.9530    8.6235 H   0  0  0  0  0  0  0  0  0  0  0  0
    8.5704    4.9726   10.0598 H   0  0  0  0  0  0  0  0  0  0  0  0
    8.2094    5.7363    8.4669 H   0  0  0  0  0  0  0  0  0  0  0  0
  1  3  2  0
  1  4  1  0
  1  5  1  0
  2  4  1  0
  2  6  1  0
  4  9  1  0
  4 15  1  0
  5  6  1  0
  5  8  1  0
  6  7  2  3
  9 10  2  0
  9 14  1  0
 10 11  1  0
 11 12  2  0
 12 13  1  0
 13 14  2  0
 15 16  2  0
 15 20  1  0
 16 17  1  0
 17 18  2  0
 18 19  1  0
 19 20  2  0
  2 21  1  0
  7 22  1  0
  8 23  1  0
  8 24  1  0
  8 25  1  0
 10 26  1  0
 11 27  1  0
 12 28  1  0
 13 29  1  0
 14 30  1  0
 16 31  1  0
 17 32  1  0
 19 33  1  0
 20 34  1  0
 35 36  2  0
 36 37  1  0
 37 38  1  0
 38 39  1  0
 38 40  2  0
 40 35  1  0
 36 41  1  0
 39 42  1  0
 39 43  1  0
 39 44  1  0
 18 35  1  0
M  END
>  <attachment_point>  (206) 
32

>  <score>  (206) 
<NA>

$$$$
4djw
     RDKit          3D

 46 49  0  0  0  0  0  0  0  0999 V2000
   22.4950   11.8750   22.5810 C   0  0  0  0  0  0  0  0  0  0  0  0
   22.5380    9.4930   22.4640 N   0  0  0  0  0  0  0  0  0  0  0  0
   22.3600   13.0630   22.3480 O   0  0  0  0  0  0  0  0  0  0  0  0
   22.3390   10.6680   21.5610 C   0  0  0  0  0  0  0  0  0  0  0  0
   22.7860   11.3350   23.8120 N   0  0  0  0  0  0  0  0  0  0  0  0
   22.7800    9.9140   23.7010 C   0  0  0  0  0  0  0  0  0  0  0  0
   22.9970    9.1110   24.7490 N   0  0  0  0  0  0  0  0  0  0  0  0
   23.0220   12.1410   25.0180 C   0  0  0  0  0  0  0  0  0  0  0  0
   20.9020   10.6270   21.0050 C   0  0  0  0  0  0  0  0  0  0  0  0
   20.2720    9.4140   20.7470 C   0  0  0  0  0  0  0  0  0  0  0  0
   18.9690    9.3760   20.2600 C   0  0  0  0  0  0  0  0  0  0  0  0
   18.2800   10.5440   20.0210 C   0  0  0  0  0  0  0  0  0  0  0  0
   18.8920   11.7530   20.2590 C   0  0  0  0  0  0  0  0  0  0  0  0
   20.1950   11.7970   20.7440 C   0  0  0  0  0  0  0  0  0  0  0  0
   23.4880   10.6920   20.5300 C   0  0  0  0  0  0  0  0  0  0  0  0
   23.2110   10.7890   19.1730 C   0  0  0  0  0  0  0  0  0  0  0  0
   24.2350   10.8650   18.2430 C   0  0  0  0  0  0  0  0  0  0  0  0
   25.5500   10.8410   18.6560 C   0  0  0  0  0  0  0  0  0  0  0  0
   25.8710   10.7460   20.0070 C   0  0  0  0  0  0  0  0  0  0  0  0
   24.8260   10.6610   20.9430 C   0  0  0  0  0  0  0  0  0  0  0  0
    0.0000    0.0000    0.0000 H   0  0  0  0  0  0  0  0  0  0  0  0
    0.0000    0.0000    0.0000 H   0  0  0  0  0  0  0  0  0  0  0  0
    0.0000    0.0000    0.0000 H   0  0  0  0  0  0  0  0  0  0  0  0
    0.0000    0.0000    0.0000 H   0  0  0  0  0  0  0  0  0  0  0  0
    0.0000    0.0000    0.0000 H   0  0  0  0  0  0  0  0  0  0  0  0
    0.0000    0.0000    0.0000 H   0  0  0  0  0  0  0  0  0  0  0  0
    0.0000    0.0000    0.0000 H   0  0  0  0  0  0  0  0  0  0  0  0
    0.0000    0.0000    0.0000 H   0  0  0  0  0  0  0  0  0  0  0  0
    0.0000    0.0000    0.0000 H   0  0  0  0  0  0  0  0  0  0  0  0
    0.0000    0.0000    0.0000 H   0  0  0  0  0  0  0  0  0  0  0  0
    0.0000    0.0000    0.0000 H   0  0  0  0  0  0  0  0  0  0  0  0
    0.0000    0.0000    0.0000 H   0  0  0  0  0  0  0  0  0  0  0  0
    0.0000    0.0000    0.0000 H   0  0  0  0  0  0  0  0  0  0  0  0
    0.0000    0.0000    0.0000 H   0  0  0  0  0  0  0  0  0  0  0  0
   12.3646    5.2464    9.0284 C   0  0  0  0  0  0  0  0  0  0  0  0
   12.6566    5.2059    7.8823 O   0  0  0  0  0  0  0  0  0  0  0  0
   11.2260    4.9456    9.7064 N   0  0  0  0  0  0  0  0  0  0  0  0
   10.0184    4.4607    9.0524 C   0  0  0  0  0  0  0  0  0  0  0  0
    9.1897    3.4057    9.7047 C   0  0  0  0  0  0  0  0  0  0  0  0
    8.6913    4.8179    9.5649 C   0  0  0  0  0  0  0  0  0  0  0  0
   11.1900    5.0614   10.7639 H   0  0  0  0  0  0  0  0  0  0  0  0
   10.1045    4.3566    7.9497 H   0  0  0  0  0  0  0  0  0  0  0  0
    9.4086    3.0365   10.7156 H   0  0  0  0  0  0  0  0  0  0  0  0
    8.7262    2.5993    9.0669 H   0  0  0  0  0  0  0  0  0  0  0  0
    7.8290    4.9112    8.8689 H   0  0  0  0  0  0  0  0  0  0  0  0
    8.5303    5.3791   10.5060 H   0  0  0  0  0  0  0  0  0  0  0  0
  1  3  2  0
  1  4  1  0
  1  5  1  0
  2  4  1  0
  2  6  1  0
  4  9  1  0
  4 15  1  0
  5  6  1  0
  5  8  1  0
  6  7  2  3
  9 10  2  0
  9 14  1  0
 10 11  1  0
 11 12  2  0
 12 13  1  0
 13 14  2  0
 15 16  2  0
 15 20  1  0
 16 17  1  0
 17 18  2  0
 18 19  1  0
 19 20  2  0
  2 21  1  0
  7 22  1  0
  8 23  1  0
  8 24  1  0
  8 25  1  0
 10 26  1  0
 11 27  1  0
 12 28  1  0
 13 29  1  0
 14 30  1  0
 16 31  1  0
 17 32  1  0
 19 33  1  0
 20 34  1  0
 35 36  2  0
 35 37  1  0
 37 38  1  0
 38 39  1  0
 39 40  1  0
 40 38  1  0
 37 41  1  0
 38 42  1  0
 39 43  1  0
 39 44  1  0
 40 45  1  0
 40 46  1  0
 18 35  1  0
M  END
>  <attachment_point>  (207) 
32

>  <score>  (207) 
<NA>

$$$$
4djw
     RDKit          3D

 43 45  0  0  0  0  0  0  0  0999 V2000
   22.4950   11.8750   22.5810 C   0  0  0  0  0  0  0  0  0  0  0  0
   22.5380    9.4930   22.4640 N   0  0  0  0  0  0  0  0  0  0  0  0
   22.3600   13.0630   22.3480 O   0  0  0  0  0  0  0  0  0  0  0  0
   22.3390   10.6680   21.5610 C   0  0  0  0  0  0  0  0  0  0  0  0
   22.7860   11.3350   23.8120 N   0  0  0  0  0  0  0  0  0  0  0  0
   22.7800    9.9140   23.7010 C   0  0  0  0  0  0  0  0  0  0  0  0
   22.9970    9.1110   24.7490 N   0  0  0  0  0  0  0  0  0  0  0  0
   23.0220   12.1410   25.0180 C   0  0  0  0  0  0  0  0  0  0  0  0
   20.9020   10.6270   21.0050 C   0  0  0  0  0  0  0  0  0  0  0  0
   20.2720    9.4140   20.7470 C   0  0  0  0  0  0  0  0  0  0  0  0
   18.9690    9.3760   20.2600 C   0  0  0  0  0  0  0  0  0  0  0  0
   18.2800   10.5440   20.0210 C   0  0  0  0  0  0  0  0  0  0  0  0
   18.8920   11.7530   20.2590 C   0  0  0  0  0  0  0  0  0  0  0  0
   20.1950   11.7970   20.7440 C   0  0  0  0  0  0  0  0  0  0  0  0
   23.4880   10.6920   20.5300 C   0  0  0  0  0  0  0  0  0  0  0  0
   23.2110   10.7890   19.1730 C   0  0  0  0  0  0  0  0  0  0  0  0
   24.2350   10.8650   18.2430 C   0  0  0  0  0  0  0  0  0  0  0  0
   25.5500   10.8410   18.6560 C   0  0  0  0  0  0  0  0  0  0  0  0
   25.8710   10.7460   20.0070 C   0  0  0  0  0  0  0  0  0  0  0  0
   24.8260   10.6610   20.9430 C   0  0  0  0  0  0  0  0  0  0  0  0
    0.0000    0.0000    0.0000 H   0  0  0  0  0  0  0  0  0  0  0  0
    0.0000    0.0000    0.0000 H   0  0  0  0  0  0  0  0  0  0  0  0
    0.0000    0.0000    0.0000 H   0  0  0  0  0  0  0  0  0  0  0  0
    0.0000    0.0000    0.0000 H   0  0  0  0  0  0  0  0  0  0  0  0
    0.0000    0.0000    0.0000 H   0  0  0  0  0  0  0  0  0  0  0  0
    0.0000    0.0000    0.0000 H   0  0  0  0  0  0  0  0  0  0  0  0
    0.0000    0.0000    0.0000 H   0  0  0  0  0  0  0  0  0  0  0  0
    0.0000    0.0000    0.0000 H   0  0  0  0  0  0  0  0  0  0  0  0
    0.0000    0.0000    0.0000 H   0  0  0  0  0  0  0  0  0  0  0  0
    0.0000    0.0000    0.0000 H   0  0  0  0  0  0  0  0  0  0  0  0
    0.0000    0.0000    0.0000 H   0  0  0  0  0  0  0  0  0  0  0  0
    0.0000    0.0000    0.0000 H   0  0  0  0  0  0  0  0  0  0  0  0
    0.0000    0.0000    0.0000 H   0  0  0  0  0  0  0  0  0  0  0  0
    0.0000    0.0000    0.0000 H   0  0  0  0  0  0  0  0  0  0  0  0
   12.3815    5.2535    9.0407 O   0  0  0  0  0  0  0  0  0  0  0  0
   13.2969    4.6551    8.1385 C   0  0  0  0  0  0  0  0  0  0  0  0
   12.5974    4.0771    6.9811 C   0  0  0  0  0  0  0  0  0  0  0  0
   12.6277    2.8050    6.6368 C   0  0  0  0  0  0  0  0  0  0  0  0
   14.0441    5.3917    7.7768 H   0  0  0  0  0  0  0  0  0  0  0  0
   13.8273    3.8923    8.7397 H   0  0  0  0  0  0  0  0  0  0  0  0
   12.0099    4.7714    6.3676 H   0  0  0  0  0  0  0  0  0  0  0  0
   13.1988    2.1209    7.2304 H   0  0  0  0  0  0  0  0  0  0  0  0
   12.0948    2.4368    5.7770 H   0  0  0  0  0  0  0  0  0  0  0  0
  1  3  2  0
  1  4  1  0
  1  5  1  0
  2  4  1  0
  2  6  1  0
  4  9  1  0
  4 15  1  0
  5  6  1  0
  5  8  1  0
  6  7  2  3
  9 10  2  0
  9 14  1  0
 10 11  1  0
 11 12  2  0
 12 13  1  0
 13 14  2  0
 15 16  2  0
 15 20  1  0
 16 17  1  0
 17 18  2  0
 18 19  1  0
 19 20  2  0
  2 21  1  0
  7 22  1  0
  8 23  1  0
  8 24  1  0
  8 25  1  0
 10 26  1  0
 11 27  1  0
 12 28  1  0
 13 29  1  0
 14 30  1  0
 16 31  1  0
 17 32  1  0
 19 33  1  0
 20 34  1  0
 35 36  1  0
 36 37  1  0
 37 38  2  3
 36 39  1  0
 36 40  1  0
 37 41  1  0
 38 42  1  0
 38 43  1  0
 18 35  1  0
M  END
>  <attachment_point>  (208) 
32

>  <score>  (208) 
<NA>

$$$$
4djw
     RDKit          3D

 46 49  0  0  0  0  0  0  0  0999 V2000
   22.4950   11.8750   22.5810 C   0  0  0  0  0  0  0  0  0  0  0  0
   22.5380    9.4930   22.4640 N   0  0  0  0  0  0  0  0  0  0  0  0
   22.3600   13.0630   22.3480 O   0  0  0  0  0  0  0  0  0  0  0  0
   22.3390   10.6680   21.5610 C   0  0  0  0  0  0  0  0  0  0  0  0
   22.7860   11.3350   23.8120 N   0  0  0  0  0  0  0  0  0  0  0  0
   22.7800    9.9140   23.7010 C   0  0  0  0  0  0  0  0  0  0  0  0
   22.9970    9.1110   24.7490 N   0  0  0  0  0  0  0  0  0  0  0  0
   23.0220   12.1410   25.0180 C   0  0  0  0  0  0  0  0  0  0  0  0
   20.9020   10.6270   21.0050 C   0  0  0  0  0  0  0  0  0  0  0  0
   20.2720    9.4140   20.7470 C   0  0  0  0  0  0  0  0  0  0  0  0
   18.9690    9.3760   20.2600 C   0  0  0  0  0  0  0  0  0  0  0  0
   18.2800   10.5440   20.0210 C   0  0  0  0  0  0  0  0  0  0  0  0
   18.8920   11.7530   20.2590 C   0  0  0  0  0  0  0  0  0  0  0  0
   20.1950   11.7970   20.7440 C   0  0  0  0  0  0  0  0  0  0  0  0
   23.4880   10.6920   20.5300 C   0  0  0  0  0  0  0  0  0  0  0  0
   23.2110   10.7890   19.1730 C   0  0  0  0  0  0  0  0  0  0  0  0
   24.2350   10.8650   18.2430 C   0  0  0  0  0  0  0  0  0  0  0  0
   25.5500   10.8410   18.6560 C   0  0  0  0  0  0  0  0  0  0  0  0
   25.8710   10.7460   20.0070 C   0  0  0  0  0  0  0  0  0  0  0  0
   24.8260   10.6610   20.9430 C   0  0  0  0  0  0  0  0  0  0  0  0
    0.0000    0.0000    0.0000 H   0  0  0  0  0  0  0  0  0  0  0  0
    0.0000    0.0000    0.0000 H   0  0  0  0  0  0  0  0  0  0  0  0
    0.0000    0.0000    0.0000 H   0  0  0  0  0  0  0  0  0  0  0  0
    0.0000    0.0000    0.0000 H   0  0  0  0  0  0  0  0  0  0  0  0
    0.0000    0.0000    0.0000 H   0  0  0  0  0  0  0  0  0  0  0  0
    0.0000    0.0000    0.0000 H   0  0  0  0  0  0  0  0  0  0  0  0
    0.0000    0.0000    0.0000 H   0  0  0  0  0  0  0  0  0  0  0  0
    0.0000    0.0000    0.0000 H   0  0  0  0  0  0  0  0  0  0  0  0
    0.0000    0.0000    0.0000 H   0  0  0  0  0  0  0  0  0  0  0  0
    0.0000    0.0000    0.0000 H   0  0  0  0  0  0  0  0  0  0  0  0
    0.0000    0.0000    0.0000 H   0  0  0  0  0  0  0  0  0  0  0  0
    0.0000    0.0000    0.0000 H   0  0  0  0  0  0  0  0  0  0  0  0
    0.0000    0.0000    0.0000 H   0  0  0  0  0  0  0  0  0  0  0  0
    0.0000    0.0000    0.0000 H   0  0  0  0  0  0  0  0  0  0  0  0
   12.4809    5.2957    9.1133 N   0  0  0  0  0  0  0  0  0  0  0  0
   11.1287    5.2787    9.5767 C   0  0  0  0  0  0  0  0  0  0  0  0
   10.8532    5.7247   10.8428 C   0  0  0  0  0  0  0  0  0  0  0  0
    9.5764    5.7452   11.3758 C   0  0  0  0  0  0  0  0  0  0  0  0
    8.5497    5.2842   10.5601 C   0  0  0  0  0  0  0  0  0  0  0  0
    8.8422    4.8380    9.2874 C   0  0  0  0  0  0  0  0  0  0  0  0
   10.1214    4.8448    8.8245 N   0  0  0  0  0  0  0  0  0  0  0  0
   12.7068    4.9546    8.1395 H   0  0  0  0  0  0  0  0  0  0  0  0
   11.6686    6.0806   11.4639 H   0  0  0  0  0  0  0  0  0  0  0  0
    9.3322    6.0858   12.3550 H   0  0  0  0  0  0  0  0  0  0  0  0
    7.5122    5.2689   10.9101 H   0  0  0  0  0  0  0  0  0  0  0  0
    8.0154    4.4829    8.6724 H   0  0  0  0  0  0  0  0  0  0  0  0
  1  3  2  0
  1  4  1  0
  1  5  1  0
  2  4  1  0
  2  6  1  0
  4  9  1  0
  4 15  1  0
  5  6  1  0
  5  8  1  0
  6  7  2  3
  9 10  2  0
  9 14  1  0
 10 11  1  0
 11 12  2  0
 12 13  1  0
 13 14  2  0
 15 16  2  0
 15 20  1  0
 16 17  1  0
 17 18  2  0
 18 19  1  0
 19 20  2  0
  2 21  1  0
  7 22  1  0
  8 23  1  0
  8 24  1  0
  8 25  1  0
 10 26  1  0
 11 27  1  0
 12 28  1  0
 13 29  1  0
 14 30  1  0
 16 31  1  0
 17 32  1  0
 19 33  1  0
 20 34  1  0
 35 36  1  0
 36 37  2  0
 37 38  1  0
 38 39  2  0
 39 40  1  0
 40 41  2  0
 41 36  1  0
 35 42  1  0
 37 43  1  0
 38 44  1  0
 39 45  1  0
 40 46  1  0
 18 35  1  0
M  END
>  <attachment_point>  (209) 
32

>  <score>  (209) 
<NA>

$$$$
4djw
     RDKit          3D

 50 53  0  0  0  0  0  0  0  0999 V2000
   22.4950   11.8750   22.5810 C   0  0  0  0  0  0  0  0  0  0  0  0
   22.5380    9.4930   22.4640 N   0  0  0  0  0  0  0  0  0  0  0  0
   22.3600   13.0630   22.3480 O   0  0  0  0  0  0  0  0  0  0  0  0
   22.3390   10.6680   21.5610 C   0  0  0  0  0  0  0  0  0  0  0  0
   22.7860   11.3350   23.8120 N   0  0  0  0  0  0  0  0  0  0  0  0
   22.7800    9.9140   23.7010 C   0  0  0  0  0  0  0  0  0  0  0  0
   22.9970    9.1110   24.7490 N   0  0  0  0  0  0  0  0  0  0  0  0
   23.0220   12.1410   25.0180 C   0  0  0  0  0  0  0  0  0  0  0  0
   20.9020   10.6270   21.0050 C   0  0  0  0  0  0  0  0  0  0  0  0
   20.2720    9.4140   20.7470 C   0  0  0  0  0  0  0  0  0  0  0  0
   18.9690    9.3760   20.2600 C   0  0  0  0  0  0  0  0  0  0  0  0
   18.2800   10.5440   20.0210 C   0  0  0  0  0  0  0  0  0  0  0  0
   18.8920   11.7530   20.2590 C   0  0  0  0  0  0  0  0  0  0  0  0
   20.1950   11.7970   20.7440 C   0  0  0  0  0  0  0  0  0  0  0  0
   23.4880   10.6920   20.5300 C   0  0  0  0  0  0  0  0  0  0  0  0
   23.2110   10.7890   19.1730 C   0  0  0  0  0  0  0  0  0  0  0  0
   24.2350   10.8650   18.2430 C   0  0  0  0  0  0  0  0  0  0  0  0
   25.5500   10.8410   18.6560 C   0  0  0  0  0  0  0  0  0  0  0  0
   25.8710   10.7460   20.0070 C   0  0  0  0  0  0  0  0  0  0  0  0
   24.8260   10.6610   20.9430 C   0  0  0  0  0  0  0  0  0  0  0  0
    0.0000    0.0000    0.0000 H   0  0  0  0  0  0  0  0  0  0  0  0
    0.0000    0.0000    0.0000 H   0  0  0  0  0  0  0  0  0  0  0  0
    0.0000    0.0000    0.0000 H   0  0  0  0  0  0  0  0  0  0  0  0
    0.0000    0.0000    0.0000 H   0  0  0  0  0  0  0  0  0  0  0  0
    0.0000    0.0000    0.0000 H   0  0  0  0  0  0  0  0  0  0  0  0
    0.0000    0.0000    0.0000 H   0  0  0  0  0  0  0  0  0  0  0  0
    0.0000    0.0000    0.0000 H   0  0  0  0  0  0  0  0  0  0  0  0
    0.0000    0.0000    0.0000 H   0  0  0  0  0  0  0  0  0  0  0  0
    0.0000    0.0000    0.0000 H   0  0  0  0  0  0  0  0  0  0  0  0
    0.0000    0.0000    0.0000 H   0  0  0  0  0  0  0  0  0  0  0  0
    0.0000    0.0000    0.0000 H   0  0  0  0  0  0  0  0  0  0  0  0
    0.0000    0.0000    0.0000 H   0  0  0  0  0  0  0  0  0  0  0  0
    0.0000    0.0000    0.0000 H   0  0  0  0  0  0  0  0  0  0  0  0
    0.0000    0.0000    0.0000 H   0  0  0  0  0  0  0  0  0  0  0  0
   12.4029    5.2626    9.0563 N   0  0  0  0  0  0  0  0  0  0  0  0
   11.3496    5.6923    9.9558 C   0  0  0  0  0  0  0  0  0  0  0  0
   11.4577    5.0413   11.3181 C   0  0  0  0  0  0  0  0  0  0  0  0
   10.8698    6.0852   12.2429 C   0  0  0  0  0  0  0  0  0  0  0  0
   11.4919    7.3615   11.7054 C   0  0  0  0  0  0  0  0  0  0  0  0
   11.5272    7.1761   10.2005 C   0  0  0  0  0  0  0  0  0  0  0  0
   12.5885    4.2554    9.0951 H   0  0  0  0  0  0  0  0  0  0  0  0
   10.3947    5.4558    9.4793 H   0  0  0  0  0  0  0  0  0  0  0  0
   10.8878    4.0951   11.3468 H   0  0  0  0  0  0  0  0  0  0  0  0
   12.5223    4.9302   11.5801 H   0  0  0  0  0  0  0  0  0  0  0  0
   11.2038    5.9821   13.2843 H   0  0  0  0  0  0  0  0  0  0  0  0
    9.7583    6.1202   12.1781 H   0  0  0  0  0  0  0  0  0  0  0  0
   10.9349    8.2648   12.0016 H   0  0  0  0  0  0  0  0  0  0  0  0
   12.5413    7.3730   12.0900 H   0  0  0  0  0  0  0  0  0  0  0  0
   12.4931    7.5523    9.8226 H   0  0  0  0  0  0  0  0  0  0  0  0
   10.7355    7.7482    9.6970 H   0  0  0  0  0  0  0  0  0  0  0  0
  1  3  2  0
  1  4  1  0
  1  5  1  0
  2  4  1  0
  2  6  1  0
  4  9  1  0
  4 15  1  0
  5  6  1  0
  5  8  1  0
  6  7  2  3
  9 10  2  0
  9 14  1  0
 10 11  1  0
 11 12  2  0
 12 13  1  0
 13 14  2  0
 15 16  2  0
 15 20  1  0
 16 17  1  0
 17 18  2  0
 18 19  1  0
 19 20  2  0
  2 21  1  0
  7 22  1  0
  8 23  1  0
  8 24  1  0
  8 25  1  0
 10 26  1  0
 11 27  1  0
 12 28  1  0
 13 29  1  0
 14 30  1  0
 16 31  1  0
 17 32  1  0
 19 33  1  0
 20 34  1  0
 35 36  1  0
 36 37  1  0
 37 38  1  0
 38 39  1  0
 39 40  1  0
 40 36  1  0
 35 41  1  0
 36 42  1  0
 37 43  1  0
 37 44  1  0
 38 45  1  0
 38 46  1  0
 39 47  1  0
 39 48  1  0
 40 49  1  0
 40 50  1  0
 18 35  1  0
M  END
>  <attachment_point>  (210) 
32

>  <score>  (210) 
<NA>

$$$$
4djw
     RDKit          3D

 41 43  0  0  0  0  0  0  0  0999 V2000
   22.4950   11.8750   22.5810 C   0  0  0  0  0  0  0  0  0  0  0  0
   22.5380    9.4930   22.4640 N   0  0  0  0  0  0  0  0  0  0  0  0
   22.3600   13.0630   22.3480 O   0  0  0  0  0  0  0  0  0  0  0  0
   22.3390   10.6680   21.5610 C   0  0  0  0  0  0  0  0  0  0  0  0
   22.7860   11.3350   23.8120 N   0  0  0  0  0  0  0  0  0  0  0  0
   22.7800    9.9140   23.7010 C   0  0  0  0  0  0  0  0  0  0  0  0
   22.9970    9.1110   24.7490 N   0  0  0  0  0  0  0  0  0  0  0  0
   23.0220   12.1410   25.0180 C   0  0  0  0  0  0  0  0  0  0  0  0
   20.9020   10.6270   21.0050 C   0  0  0  0  0  0  0  0  0  0  0  0
   20.2720    9.4140   20.7470 C   0  0  0  0  0  0  0  0  0  0  0  0
   18.9690    9.3760   20.2600 C   0  0  0  0  0  0  0  0  0  0  0  0
   18.2800   10.5440   20.0210 C   0  0  0  0  0  0  0  0  0  0  0  0
   18.8920   11.7530   20.2590 C   0  0  0  0  0  0  0  0  0  0  0  0
   20.1950   11.7970   20.7440 C   0  0  0  0  0  0  0  0  0  0  0  0
   23.4880   10.6920   20.5300 C   0  0  0  0  0  0  0  0  0  0  0  0
   23.2110   10.7890   19.1730 C   0  0  0  0  0  0  0  0  0  0  0  0
   24.2350   10.8650   18.2430 C   0  0  0  0  0  0  0  0  0  0  0  0
   25.5500   10.8410   18.6560 C   0  0  0  0  0  0  0  0  0  0  0  0
   25.8710   10.7460   20.0070 C   0  0  0  0  0  0  0  0  0  0  0  0
   24.8260   10.6610   20.9430 C   0  0  0  0  0  0  0  0  0  0  0  0
    0.0000    0.0000    0.0000 H   0  0  0  0  0  0  0  0  0  0  0  0
    0.0000    0.0000    0.0000 H   0  0  0  0  0  0  0  0  0  0  0  0
    0.0000    0.0000    0.0000 H   0  0  0  0  0  0  0  0  0  0  0  0
    0.0000    0.0000    0.0000 H   0  0  0  0  0  0  0  0  0  0  0  0
    0.0000    0.0000    0.0000 H   0  0  0  0  0  0  0  0  0  0  0  0
    0.0000    0.0000    0.0000 H   0  0  0  0  0  0  0  0  0  0  0  0
    0.0000    0.0000    0.0000 H   0  0  0  0  0  0  0  0  0  0  0  0
    0.0000    0.0000    0.0000 H   0  0  0  0  0  0  0  0  0  0  0  0
    0.0000    0.0000    0.0000 H   0  0  0  0  0  0  0  0  0  0  0  0
    0.0000    0.0000    0.0000 H   0  0  0  0  0  0  0  0  0  0  0  0
    0.0000    0.0000    0.0000 H   0  0  0  0  0  0  0  0  0  0  0  0
    0.0000    0.0000    0.0000 H   0  0  0  0  0  0  0  0  0  0  0  0
    0.0000    0.0000    0.0000 H   0  0  0  0  0  0  0  0  0  0  0  0
    0.0000    0.0000    0.0000 H   0  0  0  0  0  0  0  0  0  0  0  0
   12.3719    5.2494    9.0336 N   0  0  0  0  0  0  0  0  0  0  0  0
   11.1892    5.6030    9.5693 C   0  0  0  0  0  0  0  0  0  0  0  0
    9.9345    5.2499    8.9465 N   0  0  0  0  0  0  0  0  0  0  0  0
   11.1105    6.2653   10.6503 O   0  0  0  0  0  0  0  0  0  0  0  0
   12.7092    4.7830    8.2826 H   0  0  0  0  0  0  0  0  0  0  0  0
    9.4826    5.9250    8.3076 H   0  0  0  0  0  0  0  0  0  0  0  0
    9.5207    4.3185    9.1623 H   0  0  0  0  0  0  0  0  0  0  0  0
  1  3  2  0
  1  4  1  0
  1  5  1  0
  2  4  1  0
  2  6  1  0
  4  9  1  0
  4 15  1  0
  5  6  1  0
  5  8  1  0
  6  7  2  3
  9 10  2  0
  9 14  1  0
 10 11  1  0
 11 12  2  0
 12 13  1  0
 13 14  2  0
 15 16  2  0
 15 20  1  0
 16 17  1  0
 17 18  2  0
 18 19  1  0
 19 20  2  0
  2 21  1  0
  7 22  1  0
  8 23  1  0
  8 24  1  0
  8 25  1  0
 10 26  1  0
 11 27  1  0
 12 28  1  0
 13 29  1  0
 14 30  1  0
 16 31  1  0
 17 32  1  0
 19 33  1  0
 20 34  1  0
 35 36  1  0
 36 37  1  0
 36 38  2  0
 35 39  1  0
 37 40  1  0
 37 41  1  0
 18 35  1  0
M  END
>  <attachment_point>  (211) 
32

>  <score>  (211) 
<NA>

$$$$
4djw
     RDKit          3D

 42 44  0  0  0  0  0  0  0  0999 V2000
   22.4950   11.8750   22.5810 C   0  0  0  0  0  0  0  0  0  0  0  0
   22.5380    9.4930   22.4640 N   0  0  0  0  0  0  0  0  0  0  0  0
   22.3600   13.0630   22.3480 O   0  0  0  0  0  0  0  0  0  0  0  0
   22.3390   10.6680   21.5610 C   0  0  0  0  0  0  0  0  0  0  0  0
   22.7860   11.3350   23.8120 N   0  0  0  0  0  0  0  0  0  0  0  0
   22.7800    9.9140   23.7010 C   0  0  0  0  0  0  0  0  0  0  0  0
   22.9970    9.1110   24.7490 N   0  0  0  0  0  0  0  0  0  0  0  0
   23.0220   12.1410   25.0180 C   0  0  0  0  0  0  0  0  0  0  0  0
   20.9020   10.6270   21.0050 C   0  0  0  0  0  0  0  0  0  0  0  0
   20.2720    9.4140   20.7470 C   0  0  0  0  0  0  0  0  0  0  0  0
   18.9690    9.3760   20.2600 C   0  0  0  0  0  0  0  0  0  0  0  0
   18.2800   10.5440   20.0210 C   0  0  0  0  0  0  0  0  0  0  0  0
   18.8920   11.7530   20.2590 C   0  0  0  0  0  0  0  0  0  0  0  0
   20.1950   11.7970   20.7440 C   0  0  0  0  0  0  0  0  0  0  0  0
   23.4880   10.6920   20.5300 C   0  0  0  0  0  0  0  0  0  0  0  0
   23.2110   10.7890   19.1730 C   0  0  0  0  0  0  0  0  0  0  0  0
   24.2350   10.8650   18.2430 C   0  0  0  0  0  0  0  0  0  0  0  0
   25.5500   10.8410   18.6560 C   0  0  0  0  0  0  0  0  0  0  0  0
   25.8710   10.7460   20.0070 C   0  0  0  0  0  0  0  0  0  0  0  0
   24.8260   10.6610   20.9430 C   0  0  0  0  0  0  0  0  0  0  0  0
    0.0000    0.0000    0.0000 H   0  0  0  0  0  0  0  0  0  0  0  0
    0.0000    0.0000    0.0000 H   0  0  0  0  0  0  0  0  0  0  0  0
    0.0000    0.0000    0.0000 H   0  0  0  0  0  0  0  0  0  0  0  0
    0.0000    0.0000    0.0000 H   0  0  0  0  0  0  0  0  0  0  0  0
    0.0000    0.0000    0.0000 H   0  0  0  0  0  0  0  0  0  0  0  0
    0.0000    0.0000    0.0000 H   0  0  0  0  0  0  0  0  0  0  0  0
    0.0000    0.0000    0.0000 H   0  0  0  0  0  0  0  0  0  0  0  0
    0.0000    0.0000    0.0000 H   0  0  0  0  0  0  0  0  0  0  0  0
    0.0000    0.0000    0.0000 H   0  0  0  0  0  0  0  0  0  0  0  0
    0.0000    0.0000    0.0000 H   0  0  0  0  0  0  0  0  0  0  0  0
    0.0000    0.0000    0.0000 H   0  0  0  0  0  0  0  0  0  0  0  0
    0.0000    0.0000    0.0000 H   0  0  0  0  0  0  0  0  0  0  0  0
    0.0000    0.0000    0.0000 H   0  0  0  0  0  0  0  0  0  0  0  0
    0.0000    0.0000    0.0000 H   0  0  0  0  0  0  0  0  0  0  0  0
   12.4521    5.2835    9.0922 C   0  0  0  0  0  0  0  0  0  0  0  0
   12.6283    5.6270    7.6667 C   0  0  0  0  0  0  0  0  0  0  0  0
   12.6847    4.6916    6.7397 C   0  0  0  0  0  0  0  0  0  0  0  0
   11.4702    5.6982    9.4147 H   0  0  0  0  0  0  0  0  0  0  0  0
   12.4061    4.1775    9.2432 H   0  0  0  0  0  0  0  0  0  0  0  0
   12.7084    6.6930    7.4300 H   0  0  0  0  0  0  0  0  0  0  0  0
   12.8155    5.0125    5.7116 H   0  0  0  0  0  0  0  0  0  0  0  0
   12.5991    3.6616    7.0426 H   0  0  0  0  0  0  0  0  0  0  0  0
  1  3  2  0
  1  4  1  0
  1  5  1  0
  2  4  1  0
  2  6  1  0
  4  9  1  0
  4 15  1  0
  5  6  1  0
  5  8  1  0
  6  7  2  3
  9 10  2  0
  9 14  1  0
 10 11  1  0
 11 12  2  0
 12 13  1  0
 13 14  2  0
 15 16  2  0
 15 20  1  0
 16 17  1  0
 17 18  2  0
 18 19  1  0
 19 20  2  0
  2 21  1  0
  7 22  1  0
  8 23  1  0
  8 24  1  0
  8 25  1  0
 10 26  1  0
 11 27  1  0
 12 28  1  0
 13 29  1  0
 14 30  1  0
 16 31  1  0
 17 32  1  0
 19 33  1  0
 20 34  1  0
 35 36  1  0
 36 37  2  3
 35 38  1  0
 35 39  1  0
 36 40  1  0
 37 41  1  0
 37 42  1  0
 18 35  1  0
M  END
>  <attachment_point>  (212) 
32

>  <score>  (212) 
<NA>

$$$$
4djw
     RDKit          3D

 51 54  0  0  0  0  0  0  0  0999 V2000
   22.4950   11.8750   22.5810 C   0  0  0  0  0  0  0  0  0  0  0  0
   22.5380    9.4930   22.4640 N   0  0  0  0  0  0  0  0  0  0  0  0
   22.3600   13.0630   22.3480 O   0  0  0  0  0  0  0  0  0  0  0  0
   22.3390   10.6680   21.5610 C   0  0  0  0  0  0  0  0  0  0  0  0
   22.7860   11.3350   23.8120 N   0  0  0  0  0  0  0  0  0  0  0  0
   22.7800    9.9140   23.7010 C   0  0  0  0  0  0  0  0  0  0  0  0
   22.9970    9.1110   24.7490 N   0  0  0  0  0  0  0  0  0  0  0  0
   23.0220   12.1410   25.0180 C   0  0  0  0  0  0  0  0  0  0  0  0
   20.9020   10.6270   21.0050 C   0  0  0  0  0  0  0  0  0  0  0  0
   20.2720    9.4140   20.7470 C   0  0  0  0  0  0  0  0  0  0  0  0
   18.9690    9.3760   20.2600 C   0  0  0  0  0  0  0  0  0  0  0  0
   18.2800   10.5440   20.0210 C   0  0  0  0  0  0  0  0  0  0  0  0
   18.8920   11.7530   20.2590 C   0  0  0  0  0  0  0  0  0  0  0  0
   20.1950   11.7970   20.7440 C   0  0  0  0  0  0  0  0  0  0  0  0
   23.4880   10.6920   20.5300 C   0  0  0  0  0  0  0  0  0  0  0  0
   23.2110   10.7890   19.1730 C   0  0  0  0  0  0  0  0  0  0  0  0
   24.2350   10.8650   18.2430 C   0  0  0  0  0  0  0  0  0  0  0  0
   25.5500   10.8410   18.6560 C   0  0  0  0  0  0  0  0  0  0  0  0
   25.8710   10.7460   20.0070 C   0  0  0  0  0  0  0  0  0  0  0  0
   24.8260   10.6610   20.9430 C   0  0  0  0  0  0  0  0  0  0  0  0
    0.0000    0.0000    0.0000 H   0  0  0  0  0  0  0  0  0  0  0  0
    0.0000    0.0000    0.0000 H   0  0  0  0  0  0  0  0  0  0  0  0
    0.0000    0.0000    0.0000 H   0  0  0  0  0  0  0  0  0  0  0  0
    0.0000    0.0000    0.0000 H   0  0  0  0  0  0  0  0  0  0  0  0
    0.0000    0.0000    0.0000 H   0  0  0  0  0  0  0  0  0  0  0  0
    0.0000    0.0000    0.0000 H   0  0  0  0  0  0  0  0  0  0  0  0
    0.0000    0.0000    0.0000 H   0  0  0  0  0  0  0  0  0  0  0  0
    0.0000    0.0000    0.0000 H   0  0  0  0  0  0  0  0  0  0  0  0
    0.0000    0.0000    0.0000 H   0  0  0  0  0  0  0  0  0  0  0  0
    0.0000    0.0000    0.0000 H   0  0  0  0  0  0  0  0  0  0  0  0
    0.0000    0.0000    0.0000 H   0  0  0  0  0  0  0  0  0  0  0  0
    0.0000    0.0000    0.0000 H   0  0  0  0  0  0  0  0  0  0  0  0
    0.0000    0.0000    0.0000 H   0  0  0  0  0  0  0  0  0  0  0  0
    0.0000    0.0000    0.0000 H   0  0  0  0  0  0  0  0  0  0  0  0
   12.3760    5.2512    9.0366 C   0  0  0  0  0  0  0  0  0  0  0  0
   12.5851    4.1436    8.3146 C   0  0  0  0  0  0  0  0  0  0  0  0
   11.5445    3.6320    7.5036 C   0  0  0  0  0  0  0  0  0  0  0  0
   10.3595    4.3270    7.5140 C   0  0  0  0  0  0  0  0  0  0  0  0
    9.0059    3.7721    6.5397 S   0  0  0  0  0  6  0  0  0  0  0  0
    8.0169    2.6476    7.5030 C   0  0  0  0  0  0  0  0  0  0  0  0
    8.1432    4.9418    6.1780 O   0  0  0  0  0  0  0  0  0  0  0  0
    9.4758    3.0158    5.3271 O   0  0  0  0  0  0  0  0  0  0  0  0
   10.2035    5.4596    8.2764 C   0  0  0  0  0  0  0  0  0  0  0  0
   11.2482    5.9616    9.0822 C   0  0  0  0  0  0  0  0  0  0  0  0
   13.5178    3.5969    8.3067 H   0  0  0  0  0  0  0  0  0  0  0  0
   11.7187    2.7392    6.9241 H   0  0  0  0  0  0  0  0  0  0  0  0
    7.6130    3.1283    8.4214 H   0  0  0  0  0  0  0  0  0  0  0  0
    7.2077    2.2411    6.8553 H   0  0  0  0  0  0  0  0  0  0  0  0
    8.6419    1.7871    7.8204 H   0  0  0  0  0  0  0  0  0  0  0  0
    9.2654    6.0300    8.2994 H   0  0  0  0  0  0  0  0  0  0  0  0
   11.0930    6.8688    9.6803 H   0  0  0  0  0  0  0  0  0  0  0  0
  1  3  2  0
  1  4  1  0
  1  5  1  0
  2  4  1  0
  2  6  1  0
  4  9  1  0
  4 15  1  0
  5  6  1  0
  5  8  1  0
  6  7  2  3
  9 10  2  0
  9 14  1  0
 10 11  1  0
 11 12  2  0
 12 13  1  0
 13 14  2  0
 15 16  2  0
 15 20  1  0
 16 17  1  0
 17 18  2  0
 18 19  1  0
 19 20  2  0
  2 21  1  0
  7 22  1  0
  8 23  1  0
  8 24  1  0
  8 25  1  0
 10 26  1  0
 11 27  1  0
 12 28  1  0
 13 29  1  0
 14 30  1  0
 16 31  1  0
 17 32  1  0
 19 33  1  0
 20 34  1  0
 35 36  2  0
 36 37  1  0
 37 38  2  0
 38 39  1  0
 39 40  1  0
 39 41  2  0
 39 42  2  0
 38 43  1  0
 43 44  2  0
 44 35  1  0
 36 45  1  0
 37 46  1  0
 40 47  1  0
 40 48  1  0
 40 49  1  0
 43 50  1  0
 44 51  1  0
 18 35  1  0
M  END
>  <attachment_point>  (213) 
32

>  <score>  (213) 
<NA>

$$$$
4djw
     RDKit          3D

 39 41  0  0  0  0  0  0  0  0999 V2000
   22.4950   11.8750   22.5810 C   0  0  0  0  0  0  0  0  0  0  0  0
   22.5380    9.4930   22.4640 N   0  0  0  0  0  0  0  0  0  0  0  0
   22.3600   13.0630   22.3480 O   0  0  0  0  0  0  0  0  0  0  0  0
   22.3390   10.6680   21.5610 C   0  0  0  0  0  0  0  0  0  0  0  0
   22.7860   11.3350   23.8120 N   0  0  0  0  0  0  0  0  0  0  0  0
   22.7800    9.9140   23.7010 C   0  0  0  0  0  0  0  0  0  0  0  0
   22.9970    9.1110   24.7490 N   0  0  0  0  0  0  0  0  0  0  0  0
   23.0220   12.1410   25.0180 C   0  0  0  0  0  0  0  0  0  0  0  0
   20.9020   10.6270   21.0050 C   0  0  0  0  0  0  0  0  0  0  0  0
   20.2720    9.4140   20.7470 C   0  0  0  0  0  0  0  0  0  0  0  0
   18.9690    9.3760   20.2600 C   0  0  0  0  0  0  0  0  0  0  0  0
   18.2800   10.5440   20.0210 C   0  0  0  0  0  0  0  0  0  0  0  0
   18.8920   11.7530   20.2590 C   0  0  0  0  0  0  0  0  0  0  0  0
   20.1950   11.7970   20.7440 C   0  0  0  0  0  0  0  0  0  0  0  0
   23.4880   10.6920   20.5300 C   0  0  0  0  0  0  0  0  0  0  0  0
   23.2110   10.7890   19.1730 C   0  0  0  0  0  0  0  0  0  0  0  0
   24.2350   10.8650   18.2430 C   0  0  0  0  0  0  0  0  0  0  0  0
   25.5500   10.8410   18.6560 C   0  0  0  0  0  0  0  0  0  0  0  0
   25.8710   10.7460   20.0070 C   0  0  0  0  0  0  0  0  0  0  0  0
   24.8260   10.6610   20.9430 C   0  0  0  0  0  0  0  0  0  0  0  0
    0.0000    0.0000    0.0000 H   0  0  0  0  0  0  0  0  0  0  0  0
    0.0000    0.0000    0.0000 H   0  0  0  0  0  0  0  0  0  0  0  0
    0.0000    0.0000    0.0000 H   0  0  0  0  0  0  0  0  0  0  0  0
    0.0000    0.0000    0.0000 H   0  0  0  0  0  0  0  0  0  0  0  0
    0.0000    0.0000    0.0000 H   0  0  0  0  0  0  0  0  0  0  0  0
    0.0000    0.0000    0.0000 H   0  0  0  0  0  0  0  0  0  0  0  0
    0.0000    0.0000    0.0000 H   0  0  0  0  0  0  0  0  0  0  0  0
    0.0000    0.0000    0.0000 H   0  0  0  0  0  0  0  0  0  0  0  0
    0.0000    0.0000    0.0000 H   0  0  0  0  0  0  0  0  0  0  0  0
    0.0000    0.0000    0.0000 H   0  0  0  0  0  0  0  0  0  0  0  0
    0.0000    0.0000    0.0000 H   0  0  0  0  0  0  0  0  0  0  0  0
    0.0000    0.0000    0.0000 H   0  0  0  0  0  0  0  0  0  0  0  0
    0.0000    0.0000    0.0000 H   0  0  0  0  0  0  0  0  0  0  0  0
    0.0000    0.0000    0.0000 H   0  0  0  0  0  0  0  0  0  0  0  0
   12.5908    5.3423    9.1935 O   0  0  0  0  0  0  0  0  0  0  0  0
   11.3485    5.1197    8.6425 C   0  0  0  0  0  0  0  0  0  0  0  0
   11.3537    5.4405    7.3010 F   0  0  0  0  0  0  0  0  0  0  0  0
   11.0069    3.7872    8.8251 F   0  0  0  0  0  0  0  0  0  0  0  0
   10.5698    5.7126    9.1530 H   0  0  0  0  0  0  0  0  0  0  0  0
  1  3  2  0
  1  4  1  0
  1  5  1  0
  2  4  1  0
  2  6  1  0
  4  9  1  0
  4 15  1  0
  5  6  1  0
  5  8  1  0
  6  7  2  3
  9 10  2  0
  9 14  1  0
 10 11  1  0
 11 12  2  0
 12 13  1  0
 13 14  2  0
 15 16  2  0
 15 20  1  0
 16 17  1  0
 17 18  2  0
 18 19  1  0
 19 20  2  0
  2 21  1  0
  7 22  1  0
  8 23  1  0
  8 24  1  0
  8 25  1  0
 10 26  1  0
 11 27  1  0
 12 28  1  0
 13 29  1  0
 14 30  1  0
 16 31  1  0
 17 32  1  0
 19 33  1  0
 20 34  1  0
 35 36  1  0
 36 37  1  0
 36 38  1  0
 36 39  1  0
 18 35  1  0
M  END
>  <attachment_point>  (214) 
32

>  <score>  (214) 
<NA>

$$$$
4djw
     RDKit          3D

 52 55  0  0  0  0  0  0  0  0999 V2000
   22.4950   11.8750   22.5810 C   0  0  0  0  0  0  0  0  0  0  0  0
   22.5380    9.4930   22.4640 N   0  0  0  0  0  0  0  0  0  0  0  0
   22.3600   13.0630   22.3480 O   0  0  0  0  0  0  0  0  0  0  0  0
   22.3390   10.6680   21.5610 C   0  0  0  0  0  0  0  0  0  0  0  0
   22.7860   11.3350   23.8120 N   0  0  0  0  0  0  0  0  0  0  0  0
   22.7800    9.9140   23.7010 C   0  0  0  0  0  0  0  0  0  0  0  0
   22.9970    9.1110   24.7490 N   0  0  0  0  0  0  0  0  0  0  0  0
   23.0220   12.1410   25.0180 C   0  0  0  0  0  0  0  0  0  0  0  0
   20.9020   10.6270   21.0050 C   0  0  0  0  0  0  0  0  0  0  0  0
   20.2720    9.4140   20.7470 C   0  0  0  0  0  0  0  0  0  0  0  0
   18.9690    9.3760   20.2600 C   0  0  0  0  0  0  0  0  0  0  0  0
   18.2800   10.5440   20.0210 C   0  0  0  0  0  0  0  0  0  0  0  0
   18.8920   11.7530   20.2590 C   0  0  0  0  0  0  0  0  0  0  0  0
   20.1950   11.7970   20.7440 C   0  0  0  0  0  0  0  0  0  0  0  0
   23.4880   10.6920   20.5300 C   0  0  0  0  0  0  0  0  0  0  0  0
   23.2110   10.7890   19.1730 C   0  0  0  0  0  0  0  0  0  0  0  0
   24.2350   10.8650   18.2430 C   0  0  0  0  0  0  0  0  0  0  0  0
   25.5500   10.8410   18.6560 C   0  0  0  0  0  0  0  0  0  0  0  0
   25.8710   10.7460   20.0070 C   0  0  0  0  0  0  0  0  0  0  0  0
   24.8260   10.6610   20.9430 C   0  0  0  0  0  0  0  0  0  0  0  0
    0.0000    0.0000    0.0000 H   0  0  0  0  0  0  0  0  0  0  0  0
    0.0000    0.0000    0.0000 H   0  0  0  0  0  0  0  0  0  0  0  0
    0.0000    0.0000    0.0000 H   0  0  0  0  0  0  0  0  0  0  0  0
    0.0000    0.0000    0.0000 H   0  0  0  0  0  0  0  0  0  0  0  0
    0.0000    0.0000    0.0000 H   0  0  0  0  0  0  0  0  0  0  0  0
    0.0000    0.0000    0.0000 H   0  0  0  0  0  0  0  0  0  0  0  0
    0.0000    0.0000    0.0000 H   0  0  0  0  0  0  0  0  0  0  0  0
    0.0000    0.0000    0.0000 H   0  0  0  0  0  0  0  0  0  0  0  0
    0.0000    0.0000    0.0000 H   0  0  0  0  0  0  0  0  0  0  0  0
    0.0000    0.0000    0.0000 H   0  0  0  0  0  0  0  0  0  0  0  0
    0.0000    0.0000    0.0000 H   0  0  0  0  0  0  0  0  0  0  0  0
    0.0000    0.0000    0.0000 H   0  0  0  0  0  0  0  0  0  0  0  0
    0.0000    0.0000    0.0000 H   0  0  0  0  0  0  0  0  0  0  0  0
    0.0000    0.0000    0.0000 H   0  0  0  0  0  0  0  0  0  0  0  0
   12.4677    5.2901    9.1036 N   0  0  0  0  0  0  0  0  0  0  0  0
   11.0999    5.5546    9.3865 C   0  0  0  0  0  0  0  0  0  0  0  0
   10.8581    6.2422   10.4089 O   0  0  0  0  0  0  0  0  0  0  0  0
   10.0691    5.0291    8.4998 C   0  0  0  0  0  0  0  0  0  0  0  0
    8.6986    5.3518    8.8714 C   0  0  0  0  0  0  0  0  0  0  0  0
    7.9048    4.5766    9.6926 C   0  0  0  0  0  0  0  0  0  0  0  0
    6.6166    4.9265   10.0133 C   0  0  0  0  0  0  0  0  0  0  0  0
    6.0612    6.0895    9.5146 C   0  0  0  0  0  0  0  0  0  0  0  0
    6.8431    6.8695    8.6956 C   0  0  0  0  0  0  0  0  0  0  0  0
    8.1386    6.5116    8.3768 C   0  0  0  0  0  0  0  0  0  0  0  0
   12.7535    4.7189    8.2614 H   0  0  0  0  0  0  0  0  0  0  0  0
   10.2559    5.4307    7.4714 H   0  0  0  0  0  0  0  0  0  0  0  0
   10.2014    3.9260    8.4001 H   0  0  0  0  0  0  0  0  0  0  0  0
    8.3444    3.6732   10.0765 H   0  0  0  0  0  0  0  0  0  0  0  0
    6.0489    4.2649   10.6680 H   0  0  0  0  0  0  0  0  0  0  0  0
    5.0375    6.3489    9.7813 H   0  0  0  0  0  0  0  0  0  0  0  0
    6.4185    7.7670    8.3090 H   0  0  0  0  0  0  0  0  0  0  0  0
    8.6877    7.1753    7.7286 H   0  0  0  0  0  0  0  0  0  0  0  0
  1  3  2  0
  1  4  1  0
  1  5  1  0
  2  4  1  0
  2  6  1  0
  4  9  1  0
  4 15  1  0
  5  6  1  0
  5  8  1  0
  6  7  2  3
  9 10  2  0
  9 14  1  0
 10 11  1  0
 11 12  2  0
 12 13  1  0
 13 14  2  0
 15 16  2  0
 15 20  1  0
 16 17  1  0
 17 18  2  0
 18 19  1  0
 19 20  2  0
  2 21  1  0
  7 22  1  0
  8 23  1  0
  8 24  1  0
  8 25  1  0
 10 26  1  0
 11 27  1  0
 12 28  1  0
 13 29  1  0
 14 30  1  0
 16 31  1  0
 17 32  1  0
 19 33  1  0
 20 34  1  0
 35 36  1  0
 36 37  2  0
 36 38  1  0
 38 39  1  0
 39 40  2  0
 40 41  1  0
 41 42  2  0
 42 43  1  0
 43 44  2  0
 44 39  1  0
 35 45  1  0
 38 46  1  0
 38 47  1  0
 40 48  1  0
 41 49  1  0
 42 50  1  0
 43 51  1  0
 44 52  1  0
 18 35  1  0
M  END
>  <attachment_point>  (215) 
32

>  <score>  (215) 
<NA>

$$$$
4djw
     RDKit          3D

 47 50  0  0  0  0  0  0  0  0999 V2000
   22.4950   11.8750   22.5810 C   0  0  0  0  0  0  0  0  0  0  0  0
   22.5380    9.4930   22.4640 N   0  0  0  0  0  0  0  0  0  0  0  0
   22.3600   13.0630   22.3480 O   0  0  0  0  0  0  0  0  0  0  0  0
   22.3390   10.6680   21.5610 C   0  0  0  0  0  0  0  0  0  0  0  0
   22.7860   11.3350   23.8120 N   0  0  0  0  0  0  0  0  0  0  0  0
   22.7800    9.9140   23.7010 C   0  0  0  0  0  0  0  0  0  0  0  0
   22.9970    9.1110   24.7490 N   0  0  0  0  0  0  0  0  0  0  0  0
   23.0220   12.1410   25.0180 C   0  0  0  0  0  0  0  0  0  0  0  0
   20.9020   10.6270   21.0050 C   0  0  0  0  0  0  0  0  0  0  0  0
   20.2720    9.4140   20.7470 C   0  0  0  0  0  0  0  0  0  0  0  0
   18.9690    9.3760   20.2600 C   0  0  0  0  0  0  0  0  0  0  0  0
   18.2800   10.5440   20.0210 C   0  0  0  0  0  0  0  0  0  0  0  0
   18.8920   11.7530   20.2590 C   0  0  0  0  0  0  0  0  0  0  0  0
   20.1950   11.7970   20.7440 C   0  0  0  0  0  0  0  0  0  0  0  0
   23.4880   10.6920   20.5300 C   0  0  0  0  0  0  0  0  0  0  0  0
   23.2110   10.7890   19.1730 C   0  0  0  0  0  0  0  0  0  0  0  0
   24.2350   10.8650   18.2430 C   0  0  0  0  0  0  0  0  0  0  0  0
   25.5500   10.8410   18.6560 C   0  0  0  0  0  0  0  0  0  0  0  0
   25.8710   10.7460   20.0070 C   0  0  0  0  0  0  0  0  0  0  0  0
   24.8260   10.6610   20.9430 C   0  0  0  0  0  0  0  0  0  0  0  0
    0.0000    0.0000    0.0000 H   0  0  0  0  0  0  0  0  0  0  0  0
    0.0000    0.0000    0.0000 H   0  0  0  0  0  0  0  0  0  0  0  0
    0.0000    0.0000    0.0000 H   0  0  0  0  0  0  0  0  0  0  0  0
    0.0000    0.0000    0.0000 H   0  0  0  0  0  0  0  0  0  0  0  0
    0.0000    0.0000    0.0000 H   0  0  0  0  0  0  0  0  0  0  0  0
    0.0000    0.0000    0.0000 H   0  0  0  0  0  0  0  0  0  0  0  0
    0.0000    0.0000    0.0000 H   0  0  0  0  0  0  0  0  0  0  0  0
    0.0000    0.0000    0.0000 H   0  0  0  0  0  0  0  0  0  0  0  0
    0.0000    0.0000    0.0000 H   0  0  0  0  0  0  0  0  0  0  0  0
    0.0000    0.0000    0.0000 H   0  0  0  0  0  0  0  0  0  0  0  0
    0.0000    0.0000    0.0000 H   0  0  0  0  0  0  0  0  0  0  0  0
    0.0000    0.0000    0.0000 H   0  0  0  0  0  0  0  0  0  0  0  0
    0.0000    0.0000    0.0000 H   0  0  0  0  0  0  0  0  0  0  0  0
    0.0000    0.0000    0.0000 H   0  0  0  0  0  0  0  0  0  0  0  0
   12.4583    5.2861    9.0967 C   0  0  0  0  0  0  0  0  0  0  0  0
   11.2982    5.3709    9.5700 O   0  0  0  0  0  0  0  0  0  0  0  0
   12.6492    4.7247    7.7665 C   0  0  0  0  0  0  0  0  0  0  0  0
   11.5764    4.2813    7.0100 C   0  0  0  0  0  0  0  0  0  0  0  0
   11.7279    3.7456    5.7481 C   0  0  0  0  0  0  0  0  0  0  0  0
   12.9765    3.6305    5.1844 C   0  0  0  0  0  0  0  0  0  0  0  0
   13.1242    3.1023    3.9405 F   0  0  0  0  0  0  0  0  0  0  0  0
   14.0481    4.0692    5.9304 C   0  0  0  0  0  0  0  0  0  0  0  0
   13.9008    4.6051    7.1918 C   0  0  0  0  0  0  0  0  0  0  0  0
   10.5810    4.3713    7.4553 H   0  0  0  0  0  0  0  0  0  0  0  0
   10.8894    3.3999    5.1588 H   0  0  0  0  0  0  0  0  0  0  0  0
   15.0296    3.9777    5.4853 H   0  0  0  0  0  0  0  0  0  0  0  0
   14.7729    4.9321    7.7304 H   0  0  0  0  0  0  0  0  0  0  0  0
  1  3  2  0
  1  4  1  0
  1  5  1  0
  2  4  1  0
  2  6  1  0
  4  9  1  0
  4 15  1  0
  5  6  1  0
  5  8  1  0
  6  7  2  3
  9 10  2  0
  9 14  1  0
 10 11  1  0
 11 12  2  0
 12 13  1  0
 13 14  2  0
 15 16  2  0
 15 20  1  0
 16 17  1  0
 17 18  2  0
 18 19  1  0
 19 20  2  0
  2 21  1  0
  7 22  1  0
  8 23  1  0
  8 24  1  0
  8 25  1  0
 10 26  1  0
 11 27  1  0
 12 28  1  0
 13 29  1  0
 14 30  1  0
 16 31  1  0
 17 32  1  0
 19 33  1  0
 20 34  1  0
 35 36  2  0
 35 37  1  0
 37 38  2  0
 38 39  1  0
 39 40  2  0
 40 41  1  0
 40 42  1  0
 42 43  2  0
 43 37  1  0
 38 44  1  0
 39 45  1  0
 42 46  1  0
 43 47  1  0
 18 35  1  0
M  END
>  <attachment_point>  (216) 
32

>  <score>  (216) 
<NA>

$$$$
4djw
     RDKit          3D

 51 53  0  0  0  0  0  0  0  0999 V2000
   22.4950   11.8750   22.5810 C   0  0  0  0  0  0  0  0  0  0  0  0
   22.5380    9.4930   22.4640 N   0  0  0  0  0  0  0  0  0  0  0  0
   22.3600   13.0630   22.3480 O   0  0  0  0  0  0  0  0  0  0  0  0
   22.3390   10.6680   21.5610 C   0  0  0  0  0  0  0  0  0  0  0  0
   22.7860   11.3350   23.8120 N   0  0  0  0  0  0  0  0  0  0  0  0
   22.7800    9.9140   23.7010 C   0  0  0  0  0  0  0  0  0  0  0  0
   22.9970    9.1110   24.7490 N   0  0  0  0  0  0  0  0  0  0  0  0
   23.0220   12.1410   25.0180 C   0  0  0  0  0  0  0  0  0  0  0  0
   20.9020   10.6270   21.0050 C   0  0  0  0  0  0  0  0  0  0  0  0
   20.2720    9.4140   20.7470 C   0  0  0  0  0  0  0  0  0  0  0  0
   18.9690    9.3760   20.2600 C   0  0  0  0  0  0  0  0  0  0  0  0
   18.2800   10.5440   20.0210 C   0  0  0  0  0  0  0  0  0  0  0  0
   18.8920   11.7530   20.2590 C   0  0  0  0  0  0  0  0  0  0  0  0
   20.1950   11.7970   20.7440 C   0  0  0  0  0  0  0  0  0  0  0  0
   23.4880   10.6920   20.5300 C   0  0  0  0  0  0  0  0  0  0  0  0
   23.2110   10.7890   19.1730 C   0  0  0  0  0  0  0  0  0  0  0  0
   24.2350   10.8650   18.2430 C   0  0  0  0  0  0  0  0  0  0  0  0
   25.5500   10.8410   18.6560 C   0  0  0  0  0  0  0  0  0  0  0  0
   25.8710   10.7460   20.0070 C   0  0  0  0  0  0  0  0  0  0  0  0
   24.8260   10.6610   20.9430 C   0  0  0  0  0  0  0  0  0  0  0  0
    0.0000    0.0000    0.0000 H   0  0  0  0  0  0  0  0  0  0  0  0
    0.0000    0.0000    0.0000 H   0  0  0  0  0  0  0  0  0  0  0  0
    0.0000    0.0000    0.0000 H   0  0  0  0  0  0  0  0  0  0  0  0
    0.0000    0.0000    0.0000 H   0  0  0  0  0  0  0  0  0  0  0  0
    0.0000    0.0000    0.0000 H   0  0  0  0  0  0  0  0  0  0  0  0
    0.0000    0.0000    0.0000 H   0  0  0  0  0  0  0  0  0  0  0  0
    0.0000    0.0000    0.0000 H   0  0  0  0  0  0  0  0  0  0  0  0
    0.0000    0.0000    0.0000 H   0  0  0  0  0  0  0  0  0  0  0  0
    0.0000    0.0000    0.0000 H   0  0  0  0  0  0  0  0  0  0  0  0
    0.0000    0.0000    0.0000 H   0  0  0  0  0  0  0  0  0  0  0  0
    0.0000    0.0000    0.0000 H   0  0  0  0  0  0  0  0  0  0  0  0
    0.0000    0.0000    0.0000 H   0  0  0  0  0  0  0  0  0  0  0  0
    0.0000    0.0000    0.0000 H   0  0  0  0  0  0  0  0  0  0  0  0
    0.0000    0.0000    0.0000 H   0  0  0  0  0  0  0  0  0  0  0  0
   12.4441    5.2801    9.0864 C   0  0  0  0  0  0  0  0  0  0  0  0
   12.3539    5.4733    7.8518 O   0  0  0  0  0  0  0  0  0  0  0  0
   11.3558    4.5528    9.6342 N   0  0  0  0  0  0  0  0  0  0  0  0
   10.2964    4.1064    8.8452 C   0  0  0  0  0  0  0  0  0  0  0  0
    9.3146    3.3697    9.7453 C   0  0  0  0  0  0  0  0  0  0  0  0
    9.5200    5.3580    8.3859 C   0  0  0  0  0  0  0  0  0  0  0  0
   10.5431    3.2573    7.6715 C   0  0  0  0  0  0  0  0  0  0  0  0
   11.3475    4.3433   10.6685 H   0  0  0  0  0  0  0  0  0  0  0  0
    8.4671    2.9480    9.1713 H   0  0  0  0  0  0  0  0  0  0  0  0
    8.9897    4.0256   10.5708 H   0  0  0  0  0  0  0  0  0  0  0  0
    9.9074    2.5476   10.2234 H   0  0  0  0  0  0  0  0  0  0  0  0
    8.4280    5.1478    8.3638 H   0  0  0  0  0  0  0  0  0  0  0  0
    9.7808    6.2317    8.9920 H   0  0  0  0  0  0  0  0  0  0  0  0
    9.8034    5.5950    7.3304 H   0  0  0  0  0  0  0  0  0  0  0  0
   10.5665    2.1626    7.9475 H   0  0  0  0  0  0  0  0  0  0  0  0
    9.6739    3.3387    6.9765 H   0  0  0  0  0  0  0  0  0  0  0  0
   11.4299    3.4353    7.0782 H   0  0  0  0  0  0  0  0  0  0  0  0
  1  3  2  0
  1  4  1  0
  1  5  1  0
  2  4  1  0
  2  6  1  0
  4  9  1  0
  4 15  1  0
  5  6  1  0
  5  8  1  0
  6  7  2  3
  9 10  2  0
  9 14  1  0
 10 11  1  0
 11 12  2  0
 12 13  1  0
 13 14  2  0
 15 16  2  0
 15 20  1  0
 16 17  1  0
 17 18  2  0
 18 19  1  0
 19 20  2  0
  2 21  1  0
  7 22  1  0
  8 23  1  0
  8 24  1  0
  8 25  1  0
 10 26  1  0
 11 27  1  0
 12 28  1  0
 13 29  1  0
 14 30  1  0
 16 31  1  0
 17 32  1  0
 19 33  1  0
 20 34  1  0
 35 36  2  0
 35 37  1  0
 37 38  1  0
 38 39  1  0
 38 40  1  0
 38 41  1  0
 37 42  1  0
 39 43  1  0
 39 44  1  0
 39 45  1  0
 40 46  1  0
 40 47  1  0
 40 48  1  0
 41 49  1  0
 41 50  1  0
 41 51  1  0
 18 35  1  0
M  END
>  <attachment_point>  (217) 
32

>  <score>  (217) 
<NA>

$$$$
4djw
     RDKit          3D

 48 50  0  0  0  0  0  0  0  0999 V2000
   22.4950   11.8750   22.5810 C   0  0  0  0  0  0  0  0  0  0  0  0
   22.5380    9.4930   22.4640 N   0  0  0  0  0  0  0  0  0  0  0  0
   22.3600   13.0630   22.3480 O   0  0  0  0  0  0  0  0  0  0  0  0
   22.3390   10.6680   21.5610 C   0  0  0  0  0  0  0  0  0  0  0  0
   22.7860   11.3350   23.8120 N   0  0  0  0  0  0  0  0  0  0  0  0
   22.7800    9.9140   23.7010 C   0  0  0  0  0  0  0  0  0  0  0  0
   22.9970    9.1110   24.7490 N   0  0  0  0  0  0  0  0  0  0  0  0
   23.0220   12.1410   25.0180 C   0  0  0  0  0  0  0  0  0  0  0  0
   20.9020   10.6270   21.0050 C   0  0  0  0  0  0  0  0  0  0  0  0
   20.2720    9.4140   20.7470 C   0  0  0  0  0  0  0  0  0  0  0  0
   18.9690    9.3760   20.2600 C   0  0  0  0  0  0  0  0  0  0  0  0
   18.2800   10.5440   20.0210 C   0  0  0  0  0  0  0  0  0  0  0  0
   18.8920   11.7530   20.2590 C   0  0  0  0  0  0  0  0  0  0  0  0
   20.1950   11.7970   20.7440 C   0  0  0  0  0  0  0  0  0  0  0  0
   23.4880   10.6920   20.5300 C   0  0  0  0  0  0  0  0  0  0  0  0
   23.2110   10.7890   19.1730 C   0  0  0  0  0  0  0  0  0  0  0  0
   24.2350   10.8650   18.2430 C   0  0  0  0  0  0  0  0  0  0  0  0
   25.5500   10.8410   18.6560 C   0  0  0  0  0  0  0  0  0  0  0  0
   25.8710   10.7460   20.0070 C   0  0  0  0  0  0  0  0  0  0  0  0
   24.8260   10.6610   20.9430 C   0  0  0  0  0  0  0  0  0  0  0  0
    0.0000    0.0000    0.0000 H   0  0  0  0  0  0  0  0  0  0  0  0
    0.0000    0.0000    0.0000 H   0  0  0  0  0  0  0  0  0  0  0  0
    0.0000    0.0000    0.0000 H   0  0  0  0  0  0  0  0  0  0  0  0
    0.0000    0.0000    0.0000 H   0  0  0  0  0  0  0  0  0  0  0  0
    0.0000    0.0000    0.0000 H   0  0  0  0  0  0  0  0  0  0  0  0
    0.0000    0.0000    0.0000 H   0  0  0  0  0  0  0  0  0  0  0  0
    0.0000    0.0000    0.0000 H   0  0  0  0  0  0  0  0  0  0  0  0
    0.0000    0.0000    0.0000 H   0  0  0  0  0  0  0  0  0  0  0  0
    0.0000    0.0000    0.0000 H   0  0  0  0  0  0  0  0  0  0  0  0
    0.0000    0.0000    0.0000 H   0  0  0  0  0  0  0  0  0  0  0  0
    0.0000    0.0000    0.0000 H   0  0  0  0  0  0  0  0  0  0  0  0
    0.0000    0.0000    0.0000 H   0  0  0  0  0  0  0  0  0  0  0  0
    0.0000    0.0000    0.0000 H   0  0  0  0  0  0  0  0  0  0  0  0
    0.0000    0.0000    0.0000 H   0  0  0  0  0  0  0  0  0  0  0  0
   12.4433    5.2798    9.0858 C   0  0  0  0  0  0  0  0  0  0  0  0
   12.2584    5.8539    7.9676 O   0  0  0  0  0  0  0  0  0  0  0  0
   11.5821    4.2305    9.4875 N   0  0  0  0  0  0  0  0  0  0  0  0
   10.4763    3.7581    8.6852 C   0  0  0  0  0  0  0  0  0  0  0  0
    9.4669    4.8460    8.4112 C   0  0  0  0  0  0  0  0  0  0  0  0
    8.8744    5.4028    9.6804 C   0  0  0  0  0  0  0  0  0  0  0  0
   11.7697    3.7897   10.4084 H   0  0  0  0  0  0  0  0  0  0  0  0
    9.9911    2.8686    9.1119 H   0  0  0  0  0  0  0  0  0  0  0  0
   10.8846    3.4600    7.6777 H   0  0  0  0  0  0  0  0  0  0  0  0
    8.6426    4.4222    7.8213 H   0  0  0  0  0  0  0  0  0  0  0  0
    9.9369    5.6404    7.8169 H   0  0  0  0  0  0  0  0  0  0  0  0
    8.1723    4.6969   10.1527 H   0  0  0  0  0  0  0  0  0  0  0  0
    9.7207    5.6925   10.3339 H   0  0  0  0  0  0  0  0  0  0  0  0
    8.2844    6.3073    9.3809 H   0  0  0  0  0  0  0  0  0  0  0  0
  1  3  2  0
  1  4  1  0
  1  5  1  0
  2  4  1  0
  2  6  1  0
  4  9  1  0
  4 15  1  0
  5  6  1  0
  5  8  1  0
  6  7  2  3
  9 10  2  0
  9 14  1  0
 10 11  1  0
 11 12  2  0
 12 13  1  0
 13 14  2  0
 15 16  2  0
 15 20  1  0
 16 17  1  0
 17 18  2  0
 18 19  1  0
 19 20  2  0
  2 21  1  0
  7 22  1  0
  8 23  1  0
  8 24  1  0
  8 25  1  0
 10 26  1  0
 11 27  1  0
 12 28  1  0
 13 29  1  0
 14 30  1  0
 16 31  1  0
 17 32  1  0
 19 33  1  0
 20 34  1  0
 35 36  2  0
 35 37  1  0
 37 38  1  0
 38 39  1  0
 39 40  1  0
 37 41  1  0
 38 42  1  0
 38 43  1  0
 39 44  1  0
 39 45  1  0
 40 46  1  0
 40 47  1  0
 40 48  1  0
 18 35  1  0
M  END
>  <attachment_point>  (218) 
32

>  <score>  (218) 
<NA>

$$$$
4djw
     RDKit          3D

 40 43  0  0  0  0  0  0  0  0999 V2000
   22.4950   11.8750   22.5810 C   0  0  0  0  0  0  0  0  0  0  0  0
   22.5380    9.4930   22.4640 N   0  0  0  0  0  0  0  0  0  0  0  0
   22.3600   13.0630   22.3480 O   0  0  0  0  0  0  0  0  0  0  0  0
   22.3390   10.6680   21.5610 C   0  0  0  0  0  0  0  0  0  0  0  0
   22.7860   11.3350   23.8120 N   0  0  0  0  0  0  0  0  0  0  0  0
   22.7800    9.9140   23.7010 C   0  0  0  0  0  0  0  0  0  0  0  0
   22.9970    9.1110   24.7490 N   0  0  0  0  0  0  0  0  0  0  0  0
   23.0220   12.1410   25.0180 C   0  0  0  0  0  0  0  0  0  0  0  0
   20.9020   10.6270   21.0050 C   0  0  0  0  0  0  0  0  0  0  0  0
   20.2720    9.4140   20.7470 C   0  0  0  0  0  0  0  0  0  0  0  0
   18.9690    9.3760   20.2600 C   0  0  0  0  0  0  0  0  0  0  0  0
   18.2800   10.5440   20.0210 C   0  0  0  0  0  0  0  0  0  0  0  0
   18.8920   11.7530   20.2590 C   0  0  0  0  0  0  0  0  0  0  0  0
   20.1950   11.7970   20.7440 C   0  0  0  0  0  0  0  0  0  0  0  0
   23.4880   10.6920   20.5300 C   0  0  0  0  0  0  0  0  0  0  0  0
   23.2110   10.7890   19.1730 C   0  0  0  0  0  0  0  0  0  0  0  0
   24.2350   10.8650   18.2430 C   0  0  0  0  0  0  0  0  0  0  0  0
   25.5500   10.8410   18.6560 C   0  0  0  0  0  0  0  0  0  0  0  0
   25.8710   10.7460   20.0070 C   0  0  0  0  0  0  0  0  0  0  0  0
   24.8260   10.6610   20.9430 C   0  0  0  0  0  0  0  0  0  0  0  0
    0.0000    0.0000    0.0000 H   0  0  0  0  0  0  0  0  0  0  0  0
    0.0000    0.0000    0.0000 H   0  0  0  0  0  0  0  0  0  0  0  0
    0.0000    0.0000    0.0000 H   0  0  0  0  0  0  0  0  0  0  0  0
    0.0000    0.0000    0.0000 H   0  0  0  0  0  0  0  0  0  0  0  0
    0.0000    0.0000    0.0000 H   0  0  0  0  0  0  0  0  0  0  0  0
    0.0000    0.0000    0.0000 H   0  0  0  0  0  0  0  0  0  0  0  0
    0.0000    0.0000    0.0000 H   0  0  0  0  0  0  0  0  0  0  0  0
    0.0000    0.0000    0.0000 H   0  0  0  0  0  0  0  0  0  0  0  0
    0.0000    0.0000    0.0000 H   0  0  0  0  0  0  0  0  0  0  0  0
    0.0000    0.0000    0.0000 H   0  0  0  0  0  0  0  0  0  0  0  0
    0.0000    0.0000    0.0000 H   0  0  0  0  0  0  0  0  0  0  0  0
    0.0000    0.0000    0.0000 H   0  0  0  0  0  0  0  0  0  0  0  0
    0.0000    0.0000    0.0000 H   0  0  0  0  0  0  0  0  0  0  0  0
    0.0000    0.0000    0.0000 H   0  0  0  0  0  0  0  0  0  0  0  0
   12.4322    5.2751    9.0777 C   0  0  0  0  0  0  0  0  0  0  0  0
   12.4736    4.8916    7.7896 N   0  0  0  0  0  0  0  0  0  0  0  0
   11.2590    4.5331    7.4183 N   0  0  0  0  0  0  0  0  0  0  0  0
   10.4723    4.6913    8.4608 N   0  0  0  0  0  0  0  0  0  0  0  0
   11.1651    5.1402    9.4762 N   0  0  0  0  0  0  0  0  0  0  0  0
   10.8259    5.3603   10.4246 H   0  0  0  0  0  0  0  0  0  0  0  0
  1  3  2  0
  1  4  1  0
  1  5  1  0
  2  4  1  0
  2  6  1  0
  4  9  1  0
  4 15  1  0
  5  6  1  0
  5  8  1  0
  6  7  2  3
  9 10  2  0
  9 14  1  0
 10 11  1  0
 11 12  2  0
 12 13  1  0
 13 14  2  0
 15 16  2  0
 15 20  1  0
 16 17  1  0
 17 18  2  0
 18 19  1  0
 19 20  2  0
  2 21  1  0
  7 22  1  0
  8 23  1  0
  8 24  1  0
  8 25  1  0
 10 26  1  0
 11 27  1  0
 12 28  1  0
 13 29  1  0
 14 30  1  0
 16 31  1  0
 17 32  1  0
 19 33  1  0
 20 34  1  0
 35 36  2  0
 36 37  1  0
 37 38  2  0
 38 39  1  0
 39 35  1  0
 39 40  1  0
 18 35  1  0
M  END
>  <attachment_point>  (219) 
32

>  <score>  (219) 
<NA>

$$$$
4djw
     RDKit          3D

 45 47  0  0  0  0  0  0  0  0999 V2000
   22.4950   11.8750   22.5810 C   0  0  0  0  0  0  0  0  0  0  0  0
   22.5380    9.4930   22.4640 N   0  0  0  0  0  0  0  0  0  0  0  0
   22.3600   13.0630   22.3480 O   0  0  0  0  0  0  0  0  0  0  0  0
   22.3390   10.6680   21.5610 C   0  0  0  0  0  0  0  0  0  0  0  0
   22.7860   11.3350   23.8120 N   0  0  0  0  0  0  0  0  0  0  0  0
   22.7800    9.9140   23.7010 C   0  0  0  0  0  0  0  0  0  0  0  0
   22.9970    9.1110   24.7490 N   0  0  0  0  0  0  0  0  0  0  0  0
   23.0220   12.1410   25.0180 C   0  0  0  0  0  0  0  0  0  0  0  0
   20.9020   10.6270   21.0050 C   0  0  0  0  0  0  0  0  0  0  0  0
   20.2720    9.4140   20.7470 C   0  0  0  0  0  0  0  0  0  0  0  0
   18.9690    9.3760   20.2600 C   0  0  0  0  0  0  0  0  0  0  0  0
   18.2800   10.5440   20.0210 C   0  0  0  0  0  0  0  0  0  0  0  0
   18.8920   11.7530   20.2590 C   0  0  0  0  0  0  0  0  0  0  0  0
   20.1950   11.7970   20.7440 C   0  0  0  0  0  0  0  0  0  0  0  0
   23.4880   10.6920   20.5300 C   0  0  0  0  0  0  0  0  0  0  0  0
   23.2110   10.7890   19.1730 C   0  0  0  0  0  0  0  0  0  0  0  0
   24.2350   10.8650   18.2430 C   0  0  0  0  0  0  0  0  0  0  0  0
   25.5500   10.8410   18.6560 C   0  0  0  0  0  0  0  0  0  0  0  0
   25.8710   10.7460   20.0070 C   0  0  0  0  0  0  0  0  0  0  0  0
   24.8260   10.6610   20.9430 C   0  0  0  0  0  0  0  0  0  0  0  0
    0.0000    0.0000    0.0000 H   0  0  0  0  0  0  0  0  0  0  0  0
    0.0000    0.0000    0.0000 H   0  0  0  0  0  0  0  0  0  0  0  0
    0.0000    0.0000    0.0000 H   0  0  0  0  0  0  0  0  0  0  0  0
    0.0000    0.0000    0.0000 H   0  0  0  0  0  0  0  0  0  0  0  0
    0.0000    0.0000    0.0000 H   0  0  0  0  0  0  0  0  0  0  0  0
    0.0000    0.0000    0.0000 H   0  0  0  0  0  0  0  0  0  0  0  0
    0.0000    0.0000    0.0000 H   0  0  0  0  0  0  0  0  0  0  0  0
    0.0000    0.0000    0.0000 H   0  0  0  0  0  0  0  0  0  0  0  0
    0.0000    0.0000    0.0000 H   0  0  0  0  0  0  0  0  0  0  0  0
    0.0000    0.0000    0.0000 H   0  0  0  0  0  0  0  0  0  0  0  0
    0.0000    0.0000    0.0000 H   0  0  0  0  0  0  0  0  0  0  0  0
    0.0000    0.0000    0.0000 H   0  0  0  0  0  0  0  0  0  0  0  0
    0.0000    0.0000    0.0000 H   0  0  0  0  0  0  0  0  0  0  0  0
    0.0000    0.0000    0.0000 H   0  0  0  0  0  0  0  0  0  0  0  0
   12.3229    5.2287    8.9979 C   0  0  0  0  0  0  0  0  0  0  0  0
   12.4206    3.8937    9.6136 C   0  0  0  0  0  0  0  0  0  0  0  0
   12.2192    3.9047   11.1313 C   0  0  0  0  0  0  0  0  0  0  0  0
   12.3236    2.6158   11.6500 O   0  0  0  0  0  0  0  0  0  0  0  0
   12.9065    5.4446    8.1317 H   0  0  0  0  0  0  0  0  0  0  0  0
   11.7163    5.9731    9.4577 H   0  0  0  0  0  0  0  0  0  0  0  0
   13.3508    3.4100    9.3326 H   0  0  0  0  0  0  0  0  0  0  0  0
   11.5870    3.2808    9.2229 H   0  0  0  0  0  0  0  0  0  0  0  0
   13.0447    4.5398   11.5399 H   0  0  0  0  0  0  0  0  0  0  0  0
   11.2705    4.3716   11.4046 H   0  0  0  0  0  0  0  0  0  0  0  0
   11.7529    1.9989   11.1550 H   0  0  0  0  0  0  0  0  0  0  0  0
  1  3  2  0
  1  4  1  0
  1  5  1  0
  2  4  1  0
  2  6  1  0
  4  9  1  0
  4 15  1  0
  5  6  1  0
  5  8  1  0
  6  7  2  3
  9 10  2  0
  9 14  1  0
 10 11  1  0
 11 12  2  0
 12 13  1  0
 13 14  2  0
 15 16  2  0
 15 20  1  0
 16 17  1  0
 17 18  2  0
 18 19  1  0
 19 20  2  0
  2 21  1  0
  7 22  1  0
  8 23  1  0
  8 24  1  0
  8 25  1  0
 10 26  1  0
 11 27  1  0
 12 28  1  0
 13 29  1  0
 14 30  1  0
 16 31  1  0
 17 32  1  0
 19 33  1  0
 20 34  1  0
 35 36  1  0
 36 37  1  0
 37 38  1  0
 35 39  1  0
 35 40  1  0
 36 41  1  0
 36 42  1  0
 37 43  1  0
 37 44  1  0
 38 45  1  0
 18 35  1  0
M  END
>  <attachment_point>  (220) 
32

>  <score>  (220) 
<NA>

$$$$
4djw
     RDKit          3D

 47 50  0  0  0  0  0  0  0  0999 V2000
   22.4950   11.8750   22.5810 C   0  0  0  0  0  0  0  0  0  0  0  0
   22.5380    9.4930   22.4640 N   0  0  0  0  0  0  0  0  0  0  0  0
   22.3600   13.0630   22.3480 O   0  0  0  0  0  0  0  0  0  0  0  0
   22.3390   10.6680   21.5610 C   0  0  0  0  0  0  0  0  0  0  0  0
   22.7860   11.3350   23.8120 N   0  0  0  0  0  0  0  0  0  0  0  0
   22.7800    9.9140   23.7010 C   0  0  0  0  0  0  0  0  0  0  0  0
   22.9970    9.1110   24.7490 N   0  0  0  0  0  0  0  0  0  0  0  0
   23.0220   12.1410   25.0180 C   0  0  0  0  0  0  0  0  0  0  0  0
   20.9020   10.6270   21.0050 C   0  0  0  0  0  0  0  0  0  0  0  0
   20.2720    9.4140   20.7470 C   0  0  0  0  0  0  0  0  0  0  0  0
   18.9690    9.3760   20.2600 C   0  0  0  0  0  0  0  0  0  0  0  0
   18.2800   10.5440   20.0210 C   0  0  0  0  0  0  0  0  0  0  0  0
   18.8920   11.7530   20.2590 C   0  0  0  0  0  0  0  0  0  0  0  0
   20.1950   11.7970   20.7440 C   0  0  0  0  0  0  0  0  0  0  0  0
   23.4880   10.6920   20.5300 C   0  0  0  0  0  0  0  0  0  0  0  0
   23.2110   10.7890   19.1730 C   0  0  0  0  0  0  0  0  0  0  0  0
   24.2350   10.8650   18.2430 C   0  0  0  0  0  0  0  0  0  0  0  0
   25.5500   10.8410   18.6560 C   0  0  0  0  0  0  0  0  0  0  0  0
   25.8710   10.7460   20.0070 C   0  0  0  0  0  0  0  0  0  0  0  0
   24.8260   10.6610   20.9430 C   0  0  0  0  0  0  0  0  0  0  0  0
    0.0000    0.0000    0.0000 H   0  0  0  0  0  0  0  0  0  0  0  0
    0.0000    0.0000    0.0000 H   0  0  0  0  0  0  0  0  0  0  0  0
    0.0000    0.0000    0.0000 H   0  0  0  0  0  0  0  0  0  0  0  0
    0.0000    0.0000    0.0000 H   0  0  0  0  0  0  0  0  0  0  0  0
    0.0000    0.0000    0.0000 H   0  0  0  0  0  0  0  0  0  0  0  0
    0.0000    0.0000    0.0000 H   0  0  0  0  0  0  0  0  0  0  0  0
    0.0000    0.0000    0.0000 H   0  0  0  0  0  0  0  0  0  0  0  0
    0.0000    0.0000    0.0000 H   0  0  0  0  0  0  0  0  0  0  0  0
    0.0000    0.0000    0.0000 H   0  0  0  0  0  0  0  0  0  0  0  0
    0.0000    0.0000    0.0000 H   0  0  0  0  0  0  0  0  0  0  0  0
    0.0000    0.0000    0.0000 H   0  0  0  0  0  0  0  0  0  0  0  0
    0.0000    0.0000    0.0000 H   0  0  0  0  0  0  0  0  0  0  0  0
    0.0000    0.0000    0.0000 H   0  0  0  0  0  0  0  0  0  0  0  0
    0.0000    0.0000    0.0000 H   0  0  0  0  0  0  0  0  0  0  0  0
   12.4215    5.2705    9.0699 C   0  0  0  0  0  0  0  0  0  0  0  0
   11.1366    5.5305    9.4908 C   0  0  0  0  0  0  0  0  0  0  0  0
   10.0353    5.1009    8.7501 C   0  0  0  0  0  0  0  0  0  0  0  0
   10.2731    4.4310    7.6224 N   0  0  0  0  0  0  0  0  0  0  0  0
   11.5136    4.1553    7.1743 C   0  0  0  0  0  0  0  0  0  0  0  0
   11.7627    3.4067    5.9137 C   0  0  0  0  0  0  0  0  0  0  0  0
   12.6241    4.5851    7.9154 C   0  0  0  0  0  0  0  0  0  0  0  0
   11.0155    6.0784   10.4144 H   0  0  0  0  0  0  0  0  0  0  0  0
    9.0547    5.3378    9.1365 H   0  0  0  0  0  0  0  0  0  0  0  0
   10.8326    2.8730    5.6217 H   0  0  0  0  0  0  0  0  0  0  0  0
   12.1093    4.1160    5.1167 H   0  0  0  0  0  0  0  0  0  0  0  0
   12.5624    2.6484    6.0494 H   0  0  0  0  0  0  0  0  0  0  0  0
   13.5991    4.3650    7.5573 H   0  0  0  0  0  0  0  0  0  0  0  0
  1  3  2  0
  1  4  1  0
  1  5  1  0
  2  4  1  0
  2  6  1  0
  4  9  1  0
  4 15  1  0
  5  6  1  0
  5  8  1  0
  6  7  2  3
  9 10  2  0
  9 14  1  0
 10 11  1  0
 11 12  2  0
 12 13  1  0
 13 14  2  0
 15 16  2  0
 15 20  1  0
 16 17  1  0
 17 18  2  0
 18 19  1  0
 19 20  2  0
  2 21  1  0
  7 22  1  0
  8 23  1  0
  8 24  1  0
  8 25  1  0
 10 26  1  0
 11 27  1  0
 12 28  1  0
 13 29  1  0
 14 30  1  0
 16 31  1  0
 17 32  1  0
 19 33  1  0
 20 34  1  0
 35 36  2  0
 36 37  1  0
 37 38  2  0
 38 39  1  0
 39 40  1  0
 39 41  2  0
 41 35  1  0
 36 42  1  0
 37 43  1  0
 40 44  1  0
 40 45  1  0
 40 46  1  0
 41 47  1  0
 18 35  1  0
M  END
>  <attachment_point>  (221) 
32

>  <score>  (221) 
<NA>

$$$$
4djw
     RDKit          3D

 48 51  0  0  0  0  0  0  0  0999 V2000
   22.4950   11.8750   22.5810 C   0  0  0  0  0  0  0  0  0  0  0  0
   22.5380    9.4930   22.4640 N   0  0  0  0  0  0  0  0  0  0  0  0
   22.3600   13.0630   22.3480 O   0  0  0  0  0  0  0  0  0  0  0  0
   22.3390   10.6680   21.5610 C   0  0  0  0  0  0  0  0  0  0  0  0
   22.7860   11.3350   23.8120 N   0  0  0  0  0  0  0  0  0  0  0  0
   22.7800    9.9140   23.7010 C   0  0  0  0  0  0  0  0  0  0  0  0
   22.9970    9.1110   24.7490 N   0  0  0  0  0  0  0  0  0  0  0  0
   23.0220   12.1410   25.0180 C   0  0  0  0  0  0  0  0  0  0  0  0
   20.9020   10.6270   21.0050 C   0  0  0  0  0  0  0  0  0  0  0  0
   20.2720    9.4140   20.7470 C   0  0  0  0  0  0  0  0  0  0  0  0
   18.9690    9.3760   20.2600 C   0  0  0  0  0  0  0  0  0  0  0  0
   18.2800   10.5440   20.0210 C   0  0  0  0  0  0  0  0  0  0  0  0
   18.8920   11.7530   20.2590 C   0  0  0  0  0  0  0  0  0  0  0  0
   20.1950   11.7970   20.7440 C   0  0  0  0  0  0  0  0  0  0  0  0
   23.4880   10.6920   20.5300 C   0  0  0  0  0  0  0  0  0  0  0  0
   23.2110   10.7890   19.1730 C   0  0  0  0  0  0  0  0  0  0  0  0
   24.2350   10.8650   18.2430 C   0  0  0  0  0  0  0  0  0  0  0  0
   25.5500   10.8410   18.6560 C   0  0  0  0  0  0  0  0  0  0  0  0
   25.8710   10.7460   20.0070 C   0  0  0  0  0  0  0  0  0  0  0  0
   24.8260   10.6610   20.9430 C   0  0  0  0  0  0  0  0  0  0  0  0
    0.0000    0.0000    0.0000 H   0  0  0  0  0  0  0  0  0  0  0  0
    0.0000    0.0000    0.0000 H   0  0  0  0  0  0  0  0  0  0  0  0
    0.0000    0.0000    0.0000 H   0  0  0  0  0  0  0  0  0  0  0  0
    0.0000    0.0000    0.0000 H   0  0  0  0  0  0  0  0  0  0  0  0
    0.0000    0.0000    0.0000 H   0  0  0  0  0  0  0  0  0  0  0  0
    0.0000    0.0000    0.0000 H   0  0  0  0  0  0  0  0  0  0  0  0
    0.0000    0.0000    0.0000 H   0  0  0  0  0  0  0  0  0  0  0  0
    0.0000    0.0000    0.0000 H   0  0  0  0  0  0  0  0  0  0  0  0
    0.0000    0.0000    0.0000 H   0  0  0  0  0  0  0  0  0  0  0  0
    0.0000    0.0000    0.0000 H   0  0  0  0  0  0  0  0  0  0  0  0
    0.0000    0.0000    0.0000 H   0  0  0  0  0  0  0  0  0  0  0  0
    0.0000    0.0000    0.0000 H   0  0  0  0  0  0  0  0  0  0  0  0
    0.0000    0.0000    0.0000 H   0  0  0  0  0  0  0  0  0  0  0  0
    0.0000    0.0000    0.0000 H   0  0  0  0  0  0  0  0  0  0  0  0
   12.5023    5.3048    9.1289 N   0  0  0  0  0  0  0  0  0  0  0  0
   11.1659    5.3371    9.7208 C   0  0  0  0  0  0  0  0  0  0  0  0
   10.6458    6.7418    9.5014 C   0  0  0  0  0  0  0  0  0  0  0  0
   11.6800    7.3344    8.5399 C   0  0  2  0  0  0  0  0  0  0  0  0
   11.1413    8.2264    7.6613 O   0  0  0  0  0  0  0  0  0  0  0  0
   12.2204    6.0799    7.9065 C   0  0  0  0  0  0  0  0  0  0  0  0
   10.5506    4.6672    9.0623 H   0  0  0  0  0  0  0  0  0  0  0  0
   11.1623    5.0404   10.7684 H   0  0  0  0  0  0  0  0  0  0  0  0
   10.6035    7.2858   10.4519 H   0  0  0  0  0  0  0  0  0  0  0  0
    9.6375    6.7287    9.0397 H   0  0  0  0  0  0  0  0  0  0  0  0
   12.5066    7.8168    9.0930 H   0  0  0  0  0  0  0  0  0  0  0  0
   10.4924    7.8601    7.0382 H   0  0  0  0  0  0  0  0  0  0  0  0
   13.1011    6.2221    7.2902 H   0  0  0  0  0  0  0  0  0  0  0  0
   11.3813    5.5476    7.4225 H   0  0  0  0  0  0  0  0  0  0  0  0
  1  3  2  0
  1  4  1  0
  1  5  1  0
  2  4  1  0
  2  6  1  0
  4  9  1  0
  4 15  1  0
  5  6  1  0
  5  8  1  0
  6  7  2  3
  9 10  2  0
  9 14  1  0
 10 11  1  0
 11 12  2  0
 12 13  1  0
 13 14  2  0
 15 16  2  0
 15 20  1  0
 16 17  1  0
 17 18  2  0
 18 19  1  0
 19 20  2  0
  2 21  1  0
  7 22  1  0
  8 23  1  0
  8 24  1  0
  8 25  1  0
 10 26  1  0
 11 27  1  0
 12 28  1  0
 13 29  1  0
 14 30  1  0
 16 31  1  0
 17 32  1  0
 19 33  1  0
 20 34  1  0
 35 36  1  0
 36 37  1  0
 37 38  1  0
 38 39  1  0
 38 40  1  0
 40 35  1  0
 36 41  1  0
 36 42  1  0
 37 43  1  0
 37 44  1  0
 38 45  1  1
 39 46  1  0
 40 47  1  0
 40 48  1  0
 18 35  1  0
M  END
>  <attachment_point>  (222) 
32

>  <score>  (222) 
<NA>

$$$$
4djw
     RDKit          3D

 55 59  0  0  0  0  0  0  0  0999 V2000
   22.4950   11.8750   22.5810 C   0  0  0  0  0  0  0  0  0  0  0  0
   22.5380    9.4930   22.4640 N   0  0  0  0  0  0  0  0  0  0  0  0
   22.3600   13.0630   22.3480 O   0  0  0  0  0  0  0  0  0  0  0  0
   22.3390   10.6680   21.5610 C   0  0  0  0  0  0  0  0  0  0  0  0
   22.7860   11.3350   23.8120 N   0  0  0  0  0  0  0  0  0  0  0  0
   22.7800    9.9140   23.7010 C   0  0  0  0  0  0  0  0  0  0  0  0
   22.9970    9.1110   24.7490 N   0  0  0  0  0  0  0  0  0  0  0  0
   23.0220   12.1410   25.0180 C   0  0  0  0  0  0  0  0  0  0  0  0
   20.9020   10.6270   21.0050 C   0  0  0  0  0  0  0  0  0  0  0  0
   20.2720    9.4140   20.7470 C   0  0  0  0  0  0  0  0  0  0  0  0
   18.9690    9.3760   20.2600 C   0  0  0  0  0  0  0  0  0  0  0  0
   18.2800   10.5440   20.0210 C   0  0  0  0  0  0  0  0  0  0  0  0
   18.8920   11.7530   20.2590 C   0  0  0  0  0  0  0  0  0  0  0  0
   20.1950   11.7970   20.7440 C   0  0  0  0  0  0  0  0  0  0  0  0
   23.4880   10.6920   20.5300 C   0  0  0  0  0  0  0  0  0  0  0  0
   23.2110   10.7890   19.1730 C   0  0  0  0  0  0  0  0  0  0  0  0
   24.2350   10.8650   18.2430 C   0  0  0  0  0  0  0  0  0  0  0  0
   25.5500   10.8410   18.6560 C   0  0  0  0  0  0  0  0  0  0  0  0
   25.8710   10.7460   20.0070 C   0  0  0  0  0  0  0  0  0  0  0  0
   24.8260   10.6610   20.9430 C   0  0  0  0  0  0  0  0  0  0  0  0
    0.0000    0.0000    0.0000 H   0  0  0  0  0  0  0  0  0  0  0  0
    0.0000    0.0000    0.0000 H   0  0  0  0  0  0  0  0  0  0  0  0
    0.0000    0.0000    0.0000 H   0  0  0  0  0  0  0  0  0  0  0  0
    0.0000    0.0000    0.0000 H   0  0  0  0  0  0  0  0  0  0  0  0
    0.0000    0.0000    0.0000 H   0  0  0  0  0  0  0  0  0  0  0  0
    0.0000    0.0000    0.0000 H   0  0  0  0  0  0  0  0  0  0  0  0
    0.0000    0.0000    0.0000 H   0  0  0  0  0  0  0  0  0  0  0  0
    0.0000    0.0000    0.0000 H   0  0  0  0  0  0  0  0  0  0  0  0
    0.0000    0.0000    0.0000 H   0  0  0  0  0  0  0  0  0  0  0  0
    0.0000    0.0000    0.0000 H   0  0  0  0  0  0  0  0  0  0  0  0
    0.0000    0.0000    0.0000 H   0  0  0  0  0  0  0  0  0  0  0  0
    0.0000    0.0000    0.0000 H   0  0  0  0  0  0  0  0  0  0  0  0
    0.0000    0.0000    0.0000 H   0  0  0  0  0  0  0  0  0  0  0  0
    0.0000    0.0000    0.0000 H   0  0  0  0  0  0  0  0  0  0  0  0
   12.4343    5.2759    9.0792 C   0  0  0  0  0  0  0  0  0  0  0  0
   11.4394    4.4872    9.6205 C   0  0  0  0  0  0  0  0  0  0  0  0
   10.3814    4.0350    8.8594 C   0  0  0  0  0  0  0  0  0  0  0  0
   10.3470    4.3976    7.5307 C   0  0  0  0  0  0  0  0  0  0  0  0
    9.2534    3.9497    6.6774 C   0  0  0  0  0  0  0  0  0  0  0  0
    8.7710    4.6757    5.6088 C   0  0  0  0  0  0  0  0  0  0  0  0
    7.7374    4.2399    4.8116 C   0  0  0  0  0  0  0  0  0  0  0  0
    7.1633    3.0239    5.0990 C   0  0  0  0  0  0  0  0  0  0  0  0
    7.6107    2.2566    6.1606 C   0  0  0  0  0  0  0  0  0  0  0  0
    8.6464    2.7372    6.9265 C   0  0  0  0  0  0  0  0  0  0  0  0
   11.3487    5.1862    7.0053 C   0  0  0  0  0  0  0  0  0  0  0  0
   12.4063    5.6433    7.7479 C   0  0  0  0  0  0  0  0  0  0  0  0
   11.5070    4.2235   10.6806 H   0  0  0  0  0  0  0  0  0  0  0  0
    9.5990    3.4080    9.3082 H   0  0  0  0  0  0  0  0  0  0  0  0
    9.2226    5.6374    5.3789 H   0  0  0  0  0  0  0  0  0  0  0  0
    7.3669    4.8296    3.9668 H   0  0  0  0  0  0  0  0  0  0  0  0
    6.3378    2.6695    4.4672 H   0  0  0  0  0  0  0  0  0  0  0  0
    7.1283    1.2890    6.3619 H   0  0  0  0  0  0  0  0  0  0  0  0
    9.0049    2.1481    7.7578 H   0  0  0  0  0  0  0  0  0  0  0  0
   11.3213    5.4747    5.9488 H   0  0  0  0  0  0  0  0  0  0  0  0
   13.2099    6.2610    7.3782 H   0  0  0  0  0  0  0  0  0  0  0  0
  1  3  2  0
  1  4  1  0
  1  5  1  0
  2  4  1  0
  2  6  1  0
  4  9  1  0
  4 15  1  0
  5  6  1  0
  5  8  1  0
  6  7  2  3
  9 10  2  0
  9 14  1  0
 10 11  1  0
 11 12  2  0
 12 13  1  0
 13 14  2  0
 15 16  2  0
 15 20  1  0
 16 17  1  0
 17 18  2  0
 18 19  1  0
 19 20  2  0
  2 21  1  0
  7 22  1  0
  8 23  1  0
  8 24  1  0
  8 25  1  0
 10 26  1  0
 11 27  1  0
 12 28  1  0
 13 29  1  0
 14 30  1  0
 16 31  1  0
 17 32  1  0
 19 33  1  0
 20 34  1  0
 35 36  2  0
 36 37  1  0
 37 38  2  0
 38 39  1  0
 39 40  2  0
 40 41  1  0
 41 42  2  0
 42 43  1  0
 43 44  2  0
 38 45  1  0
 45 46  2  0
 46 35  1  0
 44 39  1  0
 36 47  1  0
 37 48  1  0
 40 49  1  0
 41 50  1  0
 42 51  1  0
 43 52  1  0
 44 53  1  0
 45 54  1  0
 46 55  1  0
 18 35  1  0
M  END
>  <attachment_point>  (223) 
32

>  <score>  (223) 
<NA>

$$$$
4djw
     RDKit          3D

 44 47  0  0  0  0  0  0  0  0999 V2000
   22.4950   11.8750   22.5810 C   0  0  0  0  0  0  0  0  0  0  0  0
   22.5380    9.4930   22.4640 N   0  0  0  0  0  0  0  0  0  0  0  0
   22.3600   13.0630   22.3480 O   0  0  0  0  0  0  0  0  0  0  0  0
   22.3390   10.6680   21.5610 C   0  0  0  0  0  0  0  0  0  0  0  0
   22.7860   11.3350   23.8120 N   0  0  0  0  0  0  0  0  0  0  0  0
   22.7800    9.9140   23.7010 C   0  0  0  0  0  0  0  0  0  0  0  0
   22.9970    9.1110   24.7490 N   0  0  0  0  0  0  0  0  0  0  0  0
   23.0220   12.1410   25.0180 C   0  0  0  0  0  0  0  0  0  0  0  0
   20.9020   10.6270   21.0050 C   0  0  0  0  0  0  0  0  0  0  0  0
   20.2720    9.4140   20.7470 C   0  0  0  0  0  0  0  0  0  0  0  0
   18.9690    9.3760   20.2600 C   0  0  0  0  0  0  0  0  0  0  0  0
   18.2800   10.5440   20.0210 C   0  0  0  0  0  0  0  0  0  0  0  0
   18.8920   11.7530   20.2590 C   0  0  0  0  0  0  0  0  0  0  0  0
   20.1950   11.7970   20.7440 C   0  0  0  0  0  0  0  0  0  0  0  0
   23.4880   10.6920   20.5300 C   0  0  0  0  0  0  0  0  0  0  0  0
   23.2110   10.7890   19.1730 C   0  0  0  0  0  0  0  0  0  0  0  0
   24.2350   10.8650   18.2430 C   0  0  0  0  0  0  0  0  0  0  0  0
   25.5500   10.8410   18.6560 C   0  0  0  0  0  0  0  0  0  0  0  0
   25.8710   10.7460   20.0070 C   0  0  0  0  0  0  0  0  0  0  0  0
   24.8260   10.6610   20.9430 C   0  0  0  0  0  0  0  0  0  0  0  0
    0.0000    0.0000    0.0000 H   0  0  0  0  0  0  0  0  0  0  0  0
    0.0000    0.0000    0.0000 H   0  0  0  0  0  0  0  0  0  0  0  0
    0.0000    0.0000    0.0000 H   0  0  0  0  0  0  0  0  0  0  0  0
    0.0000    0.0000    0.0000 H   0  0  0  0  0  0  0  0  0  0  0  0
    0.0000    0.0000    0.0000 H   0  0  0  0  0  0  0  0  0  0  0  0
    0.0000    0.0000    0.0000 H   0  0  0  0  0  0  0  0  0  0  0  0
    0.0000    0.0000    0.0000 H   0  0  0  0  0  0  0  0  0  0  0  0
    0.0000    0.0000    0.0000 H   0  0  0  0  0  0  0  0  0  0  0  0
    0.0000    0.0000    0.0000 H   0  0  0  0  0  0  0  0  0  0  0  0
    0.0000    0.0000    0.0000 H   0  0  0  0  0  0  0  0  0  0  0  0
    0.0000    0.0000    0.0000 H   0  0  0  0  0  0  0  0  0  0  0  0
    0.0000    0.0000    0.0000 H   0  0  0  0  0  0  0  0  0  0  0  0
    0.0000    0.0000    0.0000 H   0  0  0  0  0  0  0  0  0  0  0  0
    0.0000    0.0000    0.0000 H   0  0  0  0  0  0  0  0  0  0  0  0
   12.4355    5.2765    9.0801 N   0  0  0  0  0  0  0  0  0  0  0  0
   12.9920    4.2400    8.2601 C   0  0  0  0  0  0  0  0  0  0  0  0
   13.6134    3.0223    8.8896 C   0  0  0  0  0  0  0  0  0  0  0  0
   12.2942    2.9359    8.2126 C   0  0  0  0  0  0  0  0  0  0  0  0
   12.2236    6.0976    8.4710 H   0  0  0  0  0  0  0  0  0  0  0  0
   13.5544    4.6000    7.3644 H   0  0  0  0  0  0  0  0  0  0  0  0
   13.6878    3.0503    9.9952 H   0  0  0  0  0  0  0  0  0  0  0  0
   14.4664    2.5143    8.4115 H   0  0  0  0  0  0  0  0  0  0  0  0
   11.4288    2.7579    8.8647 H   0  0  0  0  0  0  0  0  0  0  0  0
   12.2890    2.4390    7.2119 H   0  0  0  0  0  0  0  0  0  0  0  0
  1  3  2  0
  1  4  1  0
  1  5  1  0
  2  4  1  0
  2  6  1  0
  4  9  1  0
  4 15  1  0
  5  6  1  0
  5  8  1  0
  6  7  2  3
  9 10  2  0
  9 14  1  0
 10 11  1  0
 11 12  2  0
 12 13  1  0
 13 14  2  0
 15 16  2  0
 15 20  1  0
 16 17  1  0
 17 18  2  0
 18 19  1  0
 19 20  2  0
  2 21  1  0
  7 22  1  0
  8 23  1  0
  8 24  1  0
  8 25  1  0
 10 26  1  0
 11 27  1  0
 12 28  1  0
 13 29  1  0
 14 30  1  0
 16 31  1  0
 17 32  1  0
 19 33  1  0
 20 34  1  0
 35 36  1  0
 36 37  1  0
 37 38  1  0
 38 36  1  0
 35 39  1  0
 36 40  1  0
 37 41  1  0
 37 42  1  0
 38 43  1  0
 38 44  1  0
 18 35  1  0
M  END
>  <attachment_point>  (224) 
32

>  <score>  (224) 
<NA>

$$$$
4djw
     RDKit          3D

 46 49  0  0  0  0  0  0  0  0999 V2000
   22.4950   11.8750   22.5810 C   0  0  0  0  0  0  0  0  0  0  0  0
   22.5380    9.4930   22.4640 N   0  0  0  0  0  0  0  0  0  0  0  0
   22.3600   13.0630   22.3480 O   0  0  0  0  0  0  0  0  0  0  0  0
   22.3390   10.6680   21.5610 C   0  0  0  0  0  0  0  0  0  0  0  0
   22.7860   11.3350   23.8120 N   0  0  0  0  0  0  0  0  0  0  0  0
   22.7800    9.9140   23.7010 C   0  0  0  0  0  0  0  0  0  0  0  0
   22.9970    9.1110   24.7490 N   0  0  0  0  0  0  0  0  0  0  0  0
   23.0220   12.1410   25.0180 C   0  0  0  0  0  0  0  0  0  0  0  0
   20.9020   10.6270   21.0050 C   0  0  0  0  0  0  0  0  0  0  0  0
   20.2720    9.4140   20.7470 C   0  0  0  0  0  0  0  0  0  0  0  0
   18.9690    9.3760   20.2600 C   0  0  0  0  0  0  0  0  0  0  0  0
   18.2800   10.5440   20.0210 C   0  0  0  0  0  0  0  0  0  0  0  0
   18.8920   11.7530   20.2590 C   0  0  0  0  0  0  0  0  0  0  0  0
   20.1950   11.7970   20.7440 C   0  0  0  0  0  0  0  0  0  0  0  0
   23.4880   10.6920   20.5300 C   0  0  0  0  0  0  0  0  0  0  0  0
   23.2110   10.7890   19.1730 C   0  0  0  0  0  0  0  0  0  0  0  0
   24.2350   10.8650   18.2430 C   0  0  0  0  0  0  0  0  0  0  0  0
   25.5500   10.8410   18.6560 C   0  0  0  0  0  0  0  0  0  0  0  0
   25.8710   10.7460   20.0070 C   0  0  0  0  0  0  0  0  0  0  0  0
   24.8260   10.6610   20.9430 C   0  0  0  0  0  0  0  0  0  0  0  0
    0.0000    0.0000    0.0000 H   0  0  0  0  0  0  0  0  0  0  0  0
    0.0000    0.0000    0.0000 H   0  0  0  0  0  0  0  0  0  0  0  0
    0.0000    0.0000    0.0000 H   0  0  0  0  0  0  0  0  0  0  0  0
    0.0000    0.0000    0.0000 H   0  0  0  0  0  0  0  0  0  0  0  0
    0.0000    0.0000    0.0000 H   0  0  0  0  0  0  0  0  0  0  0  0
    0.0000    0.0000    0.0000 H   0  0  0  0  0  0  0  0  0  0  0  0
    0.0000    0.0000    0.0000 H   0  0  0  0  0  0  0  0  0  0  0  0
    0.0000    0.0000    0.0000 H   0  0  0  0  0  0  0  0  0  0  0  0
    0.0000    0.0000    0.0000 H   0  0  0  0  0  0  0  0  0  0  0  0
    0.0000    0.0000    0.0000 H   0  0  0  0  0  0  0  0  0  0  0  0
    0.0000    0.0000    0.0000 H   0  0  0  0  0  0  0  0  0  0  0  0
    0.0000    0.0000    0.0000 H   0  0  0  0  0  0  0  0  0  0  0  0
    0.0000    0.0000    0.0000 H   0  0  0  0  0  0  0  0  0  0  0  0
    0.0000    0.0000    0.0000 H   0  0  0  0  0  0  0  0  0  0  0  0
   12.4678    5.2902    9.1037 N   0  0  0  0  0  0  0  0  0  0  0  0
   12.7788    4.6031    7.9120 C   0  0  0  0  0  0  0  0  0  0  0  0
   13.9568    4.3789    7.5176 O   0  0  0  0  0  0  0  0  0  0  0  0
   11.6744    4.1072    7.0582 C   0  0  0  0  0  0  0  0  0  0  0  0
   10.3330    4.2589    7.3280 C   0  0  0  0  0  0  0  0  0  0  0  0
    9.6076    3.6719    6.3146 C   0  0  0  0  0  0  0  0  0  0  0  0
   10.5748    3.1830    5.4628 C   0  0  0  0  0  0  0  0  0  0  0  0
   11.7580    3.4612    5.9388 O   0  0  0  0  0  0  0  0  0  0  0  0
   11.4718    5.4568    9.3974 H   0  0  0  0  0  0  0  0  0  0  0  0
    9.8962    4.7563    8.1918 H   0  0  0  0  0  0  0  0  0  0  0  0
    8.5278    3.6069    6.2076 H   0  0  0  0  0  0  0  0  0  0  0  0
   10.3358    2.6461    4.5338 H   0  0  0  0  0  0  0  0  0  0  0  0
  1  3  2  0
  1  4  1  0
  1  5  1  0
  2  4  1  0
  2  6  1  0
  4  9  1  0
  4 15  1  0
  5  6  1  0
  5  8  1  0
  6  7  2  3
  9 10  2  0
  9 14  1  0
 10 11  1  0
 11 12  2  0
 12 13  1  0
 13 14  2  0
 15 16  2  0
 15 20  1  0
 16 17  1  0
 17 18  2  0
 18 19  1  0
 19 20  2  0
  2 21  1  0
  7 22  1  0
  8 23  1  0
  8 24  1  0
  8 25  1  0
 10 26  1  0
 11 27  1  0
 12 28  1  0
 13 29  1  0
 14 30  1  0
 16 31  1  0
 17 32  1  0
 19 33  1  0
 20 34  1  0
 35 36  1  0
 36 37  2  0
 36 38  1  0
 38 39  2  0
 39 40  1  0
 40 41  2  0
 41 42  1  0
 42 38  1  0
 35 43  1  0
 39 44  1  0
 40 45  1  0
 41 46  1  0
 18 35  1  0
M  END
>  <attachment_point>  (225) 
32

>  <score>  (225) 
<NA>

$$$$
4djw
     RDKit          3D

 39 41  0  0  0  0  0  0  0  0999 V2000
   22.4950   11.8750   22.5810 C   0  0  0  0  0  0  0  0  0  0  0  0
   22.5380    9.4930   22.4640 N   0  0  0  0  0  0  0  0  0  0  0  0
   22.3600   13.0630   22.3480 O   0  0  0  0  0  0  0  0  0  0  0  0
   22.3390   10.6680   21.5610 C   0  0  0  0  0  0  0  0  0  0  0  0
   22.7860   11.3350   23.8120 N   0  0  0  0  0  0  0  0  0  0  0  0
   22.7800    9.9140   23.7010 C   0  0  0  0  0  0  0  0  0  0  0  0
   22.9970    9.1110   24.7490 N   0  0  0  0  0  0  0  0  0  0  0  0
   23.0220   12.1410   25.0180 C   0  0  0  0  0  0  0  0  0  0  0  0
   20.9020   10.6270   21.0050 C   0  0  0  0  0  0  0  0  0  0  0  0
   20.2720    9.4140   20.7470 C   0  0  0  0  0  0  0  0  0  0  0  0
   18.9690    9.3760   20.2600 C   0  0  0  0  0  0  0  0  0  0  0  0
   18.2800   10.5440   20.0210 C   0  0  0  0  0  0  0  0  0  0  0  0
   18.8920   11.7530   20.2590 C   0  0  0  0  0  0  0  0  0  0  0  0
   20.1950   11.7970   20.7440 C   0  0  0  0  0  0  0  0  0  0  0  0
   23.4880   10.6920   20.5300 C   0  0  0  0  0  0  0  0  0  0  0  0
   23.2110   10.7890   19.1730 C   0  0  0  0  0  0  0  0  0  0  0  0
   24.2350   10.8650   18.2430 C   0  0  0  0  0  0  0  0  0  0  0  0
   25.5500   10.8410   18.6560 C   0  0  0  0  0  0  0  0  0  0  0  0
   25.8710   10.7460   20.0070 C   0  0  0  0  0  0  0  0  0  0  0  0
   24.8260   10.6610   20.9430 C   0  0  0  0  0  0  0  0  0  0  0  0
    0.0000    0.0000    0.0000 H   0  0  0  0  0  0  0  0  0  0  0  0
    0.0000    0.0000    0.0000 H   0  0  0  0  0  0  0  0  0  0  0  0
    0.0000    0.0000    0.0000 H   0  0  0  0  0  0  0  0  0  0  0  0
    0.0000    0.0000    0.0000 H   0  0  0  0  0  0  0  0  0  0  0  0
    0.0000    0.0000    0.0000 H   0  0  0  0  0  0  0  0  0  0  0  0
    0.0000    0.0000    0.0000 H   0  0  0  0  0  0  0  0  0  0  0  0
    0.0000    0.0000    0.0000 H   0  0  0  0  0  0  0  0  0  0  0  0
    0.0000    0.0000    0.0000 H   0  0  0  0  0  0  0  0  0  0  0  0
    0.0000    0.0000    0.0000 H   0  0  0  0  0  0  0  0  0  0  0  0
    0.0000    0.0000    0.0000 H   0  0  0  0  0  0  0  0  0  0  0  0
    0.0000    0.0000    0.0000 H   0  0  0  0  0  0  0  0  0  0  0  0
    0.0000    0.0000    0.0000 H   0  0  0  0  0  0  0  0  0  0  0  0
    0.0000    0.0000    0.0000 H   0  0  0  0  0  0  0  0  0  0  0  0
    0.0000    0.0000    0.0000 H   0  0  0  0  0  0  0  0  0  0  0  0
   12.3267    5.2303    9.0006 C   0  0  0  0  0  0  0  0  0  0  0  0
   11.4788    6.0401    9.2780 N   0  0  0  0  0  0  0  0  0  0  0  0
   10.2079    6.1674    8.8610 O   0  0  0  0  0  0  0  0  0  0  0  0
   12.6700    4.4325    8.5281 H   0  0  0  0  0  0  0  0  0  0  0  0
    9.5637    5.4226    8.9791 H   0  0  0  0  0  0  0  0  0  0  0  0
  1  3  2  0
  1  4  1  0
  1  5  1  0
  2  4  1  0
  2  6  1  0
  4  9  1  0
  4 15  1  0
  5  6  1  0
  5  8  1  0
  6  7  2  3
  9 10  2  0
  9 14  1  0
 10 11  1  0
 11 12  2  0
 12 13  1  0
 13 14  2  0
 15 16  2  0
 15 20  1  0
 16 17  1  0
 17 18  2  0
 18 19  1  0
 19 20  2  0
  2 21  1  0
  7 22  1  0
  8 23  1  0
  8 24  1  0
  8 25  1  0
 10 26  1  0
 11 27  1  0
 12 28  1  0
 13 29  1  0
 14 30  1  0
 16 31  1  0
 17 32  1  0
 19 33  1  0
 20 34  1  0
 35 36  2  3
 36 37  1  0
 35 38  1  0
 37 39  1  0
 18 35  1  0
M  END
>  <attachment_point>  (226) 
32

>  <score>  (226) 
<NA>

$$$$
4djw
     RDKit          3D

 58 61  0  0  0  0  0  0  0  0999 V2000
   22.4950   11.8750   22.5810 C   0  0  0  0  0  0  0  0  0  0  0  0
   22.5380    9.4930   22.4640 N   0  0  0  0  0  0  0  0  0  0  0  0
   22.3600   13.0630   22.3480 O   0  0  0  0  0  0  0  0  0  0  0  0
   22.3390   10.6680   21.5610 C   0  0  0  0  0  0  0  0  0  0  0  0
   22.7860   11.3350   23.8120 N   0  0  0  0  0  0  0  0  0  0  0  0
   22.7800    9.9140   23.7010 C   0  0  0  0  0  0  0  0  0  0  0  0
   22.9970    9.1110   24.7490 N   0  0  0  0  0  0  0  0  0  0  0  0
   23.0220   12.1410   25.0180 C   0  0  0  0  0  0  0  0  0  0  0  0
   20.9020   10.6270   21.0050 C   0  0  0  0  0  0  0  0  0  0  0  0
   20.2720    9.4140   20.7470 C   0  0  0  0  0  0  0  0  0  0  0  0
   18.9690    9.3760   20.2600 C   0  0  0  0  0  0  0  0  0  0  0  0
   18.2800   10.5440   20.0210 C   0  0  0  0  0  0  0  0  0  0  0  0
   18.8920   11.7530   20.2590 C   0  0  0  0  0  0  0  0  0  0  0  0
   20.1950   11.7970   20.7440 C   0  0  0  0  0  0  0  0  0  0  0  0
   23.4880   10.6920   20.5300 C   0  0  0  0  0  0  0  0  0  0  0  0
   23.2110   10.7890   19.1730 C   0  0  0  0  0  0  0  0  0  0  0  0
   24.2350   10.8650   18.2430 C   0  0  0  0  0  0  0  0  0  0  0  0
   25.5500   10.8410   18.6560 C   0  0  0  0  0  0  0  0  0  0  0  0
   25.8710   10.7460   20.0070 C   0  0  0  0  0  0  0  0  0  0  0  0
   24.8260   10.6610   20.9430 C   0  0  0  0  0  0  0  0  0  0  0  0
    0.0000    0.0000    0.0000 H   0  0  0  0  0  0  0  0  0  0  0  0
    0.0000    0.0000    0.0000 H   0  0  0  0  0  0  0  0  0  0  0  0
    0.0000    0.0000    0.0000 H   0  0  0  0  0  0  0  0  0  0  0  0
    0.0000    0.0000    0.0000 H   0  0  0  0  0  0  0  0  0  0  0  0
    0.0000    0.0000    0.0000 H   0  0  0  0  0  0  0  0  0  0  0  0
    0.0000    0.0000    0.0000 H   0  0  0  0  0  0  0  0  0  0  0  0
    0.0000    0.0000    0.0000 H   0  0  0  0  0  0  0  0  0  0  0  0
    0.0000    0.0000    0.0000 H   0  0  0  0  0  0  0  0  0  0  0  0
    0.0000    0.0000    0.0000 H   0  0  0  0  0  0  0  0  0  0  0  0
    0.0000    0.0000    0.0000 H   0  0  0  0  0  0  0  0  0  0  0  0
    0.0000    0.0000    0.0000 H   0  0  0  0  0  0  0  0  0  0  0  0
    0.0000    0.0000    0.0000 H   0  0  0  0  0  0  0  0  0  0  0  0
    0.0000    0.0000    0.0000 H   0  0  0  0  0  0  0  0  0  0  0  0
    0.0000    0.0000    0.0000 H   0  0  0  0  0  0  0  0  0  0  0  0
   12.4718    5.2919    9.1066 O   0  0  0  0  0  0  0  0  0  0  0  0
   12.4661    3.8765    9.1081 C   0  0  0  0  0  0  0  0  0  0  0  0
   11.3146    3.3657    8.2677 C   0  0  0  0  0  0  0  0  0  0  0  0
   11.4393    3.8428    6.8511 C   0  0  0  0  0  0  0  0  0  0  0  0
   12.6371    3.4212    6.1895 N   0  0  0  0  0  0  0  0  0  0  0  0
   12.6090    3.9592    4.8400 C   0  0  0  0  0  0  0  0  0  0  0  0
   13.8492    3.6203    4.0584 C   0  0  0  0  0  0  0  0  0  0  0  0
   13.9281    2.2142    3.9681 O   0  0  0  0  0  0  0  0  0  0  0  0
   14.0852    1.7732    5.2968 C   0  0  0  0  0  0  0  0  0  0  0  0
   12.8136    2.0084    6.0919 C   0  0  0  0  0  0  0  0  0  0  0  0
   12.2516    3.5727   10.1584 H   0  0  0  0  0  0  0  0  0  0  0  0
   13.4431    3.5571    8.7491 H   0  0  0  0  0  0  0  0  0  0  0  0
   11.1549    2.3003    8.3893 H   0  0  0  0  0  0  0  0  0  0  0  0
   10.3946    3.8724    8.6855 H   0  0  0  0  0  0  0  0  0  0  0  0
   10.5729    3.4856    6.2635 H   0  0  0  0  0  0  0  0  0  0  0  0
   11.4462    4.9533    6.8740 H   0  0  0  0  0  0  0  0  0  0  0  0
   12.4698    5.0622    4.8279 H   0  0  0  0  0  0  0  0  0  0  0  0
   11.7413    3.4781    4.3350 H   0  0  0  0  0  0  0  0  0  0  0  0
   13.7501    4.0693    3.0626 H   0  0  0  0  0  0  0  0  0  0  0  0
   14.7584    3.9660    4.5774 H   0  0  0  0  0  0  0  0  0  0  0  0
   14.8909    2.3982    5.7625 H   0  0  0  0  0  0  0  0  0  0  0  0
   14.3954    0.7169    5.3491 H   0  0  0  0  0  0  0  0  0  0  0  0
   12.9594    1.4960    7.0608 H   0  0  0  0  0  0  0  0  0  0  0  0
   11.9487    1.5927    5.5139 H   0  0  0  0  0  0  0  0  0  0  0  0
  1  3  2  0
  1  4  1  0
  1  5  1  0
  2  4  1  0
  2  6  1  0
  4  9  1  0
  4 15  1  0
  5  6  1  0
  5  8  1  0
  6  7  2  3
  9 10  2  0
  9 14  1  0
 10 11  1  0
 11 12  2  0
 12 13  1  0
 13 14  2  0
 15 16  2  0
 15 20  1  0
 16 17  1  0
 17 18  2  0
 18 19  1  0
 19 20  2  0
  2 21  1  0
  7 22  1  0
  8 23  1  0
  8 24  1  0
  8 25  1  0
 10 26  1  0
 11 27  1  0
 12 28  1  0
 13 29  1  0
 14 30  1  0
 16 31  1  0
 17 32  1  0
 19 33  1  0
 20 34  1  0
 35 36  1  0
 36 37  1  0
 37 38  1  0
 38 39  1  0
 39 40  1  0
 40 41  1  0
 41 42  1  0
 42 43  1  0
 43 44  1  0
 44 39  1  0
 36 45  1  0
 36 46  1  0
 37 47  1  0
 37 48  1  0
 38 49  1  0
 38 50  1  0
 40 51  1  0
 40 52  1  0
 41 53  1  0
 41 54  1  0
 43 55  1  0
 43 56  1  0
 44 57  1  0
 44 58  1  0
 18 35  1  0
M  END
>  <attachment_point>  (227) 
32

>  <score>  (227) 
<NA>

$$$$
4djw
     RDKit          3D

 51 54  0  0  0  0  0  0  0  0999 V2000
   22.4950   11.8750   22.5810 C   0  0  0  0  0  0  0  0  0  0  0  0
   22.5380    9.4930   22.4640 N   0  0  0  0  0  0  0  0  0  0  0  0
   22.3600   13.0630   22.3480 O   0  0  0  0  0  0  0  0  0  0  0  0
   22.3390   10.6680   21.5610 C   0  0  0  0  0  0  0  0  0  0  0  0
   22.7860   11.3350   23.8120 N   0  0  0  0  0  0  0  0  0  0  0  0
   22.7800    9.9140   23.7010 C   0  0  0  0  0  0  0  0  0  0  0  0
   22.9970    9.1110   24.7490 N   0  0  0  0  0  0  0  0  0  0  0  0
   23.0220   12.1410   25.0180 C   0  0  0  0  0  0  0  0  0  0  0  0
   20.9020   10.6270   21.0050 C   0  0  0  0  0  0  0  0  0  0  0  0
   20.2720    9.4140   20.7470 C   0  0  0  0  0  0  0  0  0  0  0  0
   18.9690    9.3760   20.2600 C   0  0  0  0  0  0  0  0  0  0  0  0
   18.2800   10.5440   20.0210 C   0  0  0  0  0  0  0  0  0  0  0  0
   18.8920   11.7530   20.2590 C   0  0  0  0  0  0  0  0  0  0  0  0
   20.1950   11.7970   20.7440 C   0  0  0  0  0  0  0  0  0  0  0  0
   23.4880   10.6920   20.5300 C   0  0  0  0  0  0  0  0  0  0  0  0
   23.2110   10.7890   19.1730 C   0  0  0  0  0  0  0  0  0  0  0  0
   24.2350   10.8650   18.2430 C   0  0  0  0  0  0  0  0  0  0  0  0
   25.5500   10.8410   18.6560 C   0  0  0  0  0  0  0  0  0  0  0  0
   25.8710   10.7460   20.0070 C   0  0  0  0  0  0  0  0  0  0  0  0
   24.8260   10.6610   20.9430 C   0  0  0  0  0  0  0  0  0  0  0  0
    0.0000    0.0000    0.0000 H   0  0  0  0  0  0  0  0  0  0  0  0
    0.0000    0.0000    0.0000 H   0  0  0  0  0  0  0  0  0  0  0  0
    0.0000    0.0000    0.0000 H   0  0  0  0  0  0  0  0  0  0  0  0
    0.0000    0.0000    0.0000 H   0  0  0  0  0  0  0  0  0  0  0  0
    0.0000    0.0000    0.0000 H   0  0  0  0  0  0  0  0  0  0  0  0
    0.0000    0.0000    0.0000 H   0  0  0  0  0  0  0  0  0  0  0  0
    0.0000    0.0000    0.0000 H   0  0  0  0  0  0  0  0  0  0  0  0
    0.0000    0.0000    0.0000 H   0  0  0  0  0  0  0  0  0  0  0  0
    0.0000    0.0000    0.0000 H   0  0  0  0  0  0  0  0  0  0  0  0
    0.0000    0.0000    0.0000 H   0  0  0  0  0  0  0  0  0  0  0  0
    0.0000    0.0000    0.0000 H   0  0  0  0  0  0  0  0  0  0  0  0
    0.0000    0.0000    0.0000 H   0  0  0  0  0  0  0  0  0  0  0  0
    0.0000    0.0000    0.0000 H   0  0  0  0  0  0  0  0  0  0  0  0
    0.0000    0.0000    0.0000 H   0  0  0  0  0  0  0  0  0  0  0  0
   12.3962    5.2598    9.0514 C   0  0  0  0  0  0  0  0  0  0  0  0
   11.5042    4.4248    9.6088 C   0  0  0  0  0  0  0  0  0  0  0  0
   10.4312    3.9695    8.8255 C   0  0  0  0  0  0  0  0  0  0  0  0
   10.3180    4.3844    7.5168 C   0  0  0  0  0  0  0  0  0  0  0  0
    9.1703    3.8729    6.7435 C   0  0  0  0  0  0  0  0  0  0  0  0
    9.4138    2.6054    6.0222 C   0  0  0  0  0  0  0  0  0  0  0  0
   11.2626    5.2381    7.0069 C   0  0  0  0  0  0  0  0  0  0  0  0
   12.3272    5.6940    7.7734 C   0  0  0  0  0  0  0  0  0  0  0  0
   11.6012    4.1059   10.6332 H   0  0  0  0  0  0  0  0  0  0  0  0
    9.7491    3.3023    9.3280 H   0  0  0  0  0  0  0  0  0  0  0  0
    8.3197    3.7454    7.4423 H   0  0  0  0  0  0  0  0  0  0  0  0
    8.8655    4.6643    6.0149 H   0  0  0  0  0  0  0  0  0  0  0  0
    9.8603    1.8510    6.7103 H   0  0  0  0  0  0  0  0  0  0  0  0
   10.0208    2.6803    5.1127 H   0  0  0  0  0  0  0  0  0  0  0  0
    8.4315    2.1809    5.7158 H   0  0  0  0  0  0  0  0  0  0  0  0
   11.1631    5.5518    5.9917 H   0  0  0  0  0  0  0  0  0  0  0  0
   13.0620    6.3591    7.3744 H   0  0  0  0  0  0  0  0  0  0  0  0
  1  3  2  0
  1  4  1  0
  1  5  1  0
  2  4  1  0
  2  6  1  0
  4  9  1  0
  4 15  1  0
  5  6  1  0
  5  8  1  0
  6  7  2  3
  9 10  2  0
  9 14  1  0
 10 11  1  0
 11 12  2  0
 12 13  1  0
 13 14  2  0
 15 16  2  0
 15 20  1  0
 16 17  1  0
 17 18  2  0
 18 19  1  0
 19 20  2  0
  2 21  1  0
  7 22  1  0
  8 23  1  0
  8 24  1  0
  8 25  1  0
 10 26  1  0
 11 27  1  0
 12 28  1  0
 13 29  1  0
 14 30  1  0
 16 31  1  0
 17 32  1  0
 19 33  1  0
 20 34  1  0
 35 36  2  0
 36 37  1  0
 37 38  2  0
 38 39  1  0
 39 40  1  0
 38 41  1  0
 41 42  2  0
 42 35  1  0
 36 43  1  0
 37 44  1  0
 39 45  1  0
 39 46  1  0
 40 47  1  0
 40 48  1  0
 40 49  1  0
 41 50  1  0
 42 51  1  0
 18 35  1  0
M  END
>  <attachment_point>  (228) 
32

>  <score>  (228) 
<NA>

$$$$
4djw
     RDKit          3D

 45 47  0  0  0  0  0  0  0  0999 V2000
   22.4950   11.8750   22.5810 C   0  0  0  0  0  0  0  0  0  0  0  0
   22.5380    9.4930   22.4640 N   0  0  0  0  0  0  0  0  0  0  0  0
   22.3600   13.0630   22.3480 O   0  0  0  0  0  0  0  0  0  0  0  0
   22.3390   10.6680   21.5610 C   0  0  0  0  0  0  0  0  0  0  0  0
   22.7860   11.3350   23.8120 N   0  0  0  0  0  0  0  0  0  0  0  0
   22.7800    9.9140   23.7010 C   0  0  0  0  0  0  0  0  0  0  0  0
   22.9970    9.1110   24.7490 N   0  0  0  0  0  0  0  0  0  0  0  0
   23.0220   12.1410   25.0180 C   0  0  0  0  0  0  0  0  0  0  0  0
   20.9020   10.6270   21.0050 C   0  0  0  0  0  0  0  0  0  0  0  0
   20.2720    9.4140   20.7470 C   0  0  0  0  0  0  0  0  0  0  0  0
   18.9690    9.3760   20.2600 C   0  0  0  0  0  0  0  0  0  0  0  0
   18.2800   10.5440   20.0210 C   0  0  0  0  0  0  0  0  0  0  0  0
   18.8920   11.7530   20.2590 C   0  0  0  0  0  0  0  0  0  0  0  0
   20.1950   11.7970   20.7440 C   0  0  0  0  0  0  0  0  0  0  0  0
   23.4880   10.6920   20.5300 C   0  0  0  0  0  0  0  0  0  0  0  0
   23.2110   10.7890   19.1730 C   0  0  0  0  0  0  0  0  0  0  0  0
   24.2350   10.8650   18.2430 C   0  0  0  0  0  0  0  0  0  0  0  0
   25.5500   10.8410   18.6560 C   0  0  0  0  0  0  0  0  0  0  0  0
   25.8710   10.7460   20.0070 C   0  0  0  0  0  0  0  0  0  0  0  0
   24.8260   10.6610   20.9430 C   0  0  0  0  0  0  0  0  0  0  0  0
    0.0000    0.0000    0.0000 H   0  0  0  0  0  0  0  0  0  0  0  0
    0.0000    0.0000    0.0000 H   0  0  0  0  0  0  0  0  0  0  0  0
    0.0000    0.0000    0.0000 H   0  0  0  0  0  0  0  0  0  0  0  0
    0.0000    0.0000    0.0000 H   0  0  0  0  0  0  0  0  0  0  0  0
    0.0000    0.0000    0.0000 H   0  0  0  0  0  0  0  0  0  0  0  0
    0.0000    0.0000    0.0000 H   0  0  0  0  0  0  0  0  0  0  0  0
    0.0000    0.0000    0.0000 H   0  0  0  0  0  0  0  0  0  0  0  0
    0.0000    0.0000    0.0000 H   0  0  0  0  0  0  0  0  0  0  0  0
    0.0000    0.0000    0.0000 H   0  0  0  0  0  0  0  0  0  0  0  0
    0.0000    0.0000    0.0000 H   0  0  0  0  0  0  0  0  0  0  0  0
    0.0000    0.0000    0.0000 H   0  0  0  0  0  0  0  0  0  0  0  0
    0.0000    0.0000    0.0000 H   0  0  0  0  0  0  0  0  0  0  0  0
    0.0000    0.0000    0.0000 H   0  0  0  0  0  0  0  0  0  0  0  0
    0.0000    0.0000    0.0000 H   0  0  0  0  0  0  0  0  0  0  0  0
   12.4468    5.2812    9.0883 N   0  0  0  0  0  0  0  0  0  0  0  0
   11.1377    5.6019    9.4989 C   0  0  0  0  0  0  0  0  0  0  0  0
   10.8869    6.2807   10.5405 O   0  0  0  0  0  0  0  0  0  0  0  0
   10.0227    5.1277    8.6831 C   0  0  0  0  0  0  0  0  0  0  0  0
    8.7053    5.5691    9.2813 C   0  0  0  0  0  0  0  0  0  0  0  0
   12.6020    4.7298    8.2391 H   0  0  0  0  0  0  0  0  0  0  0  0
   10.0821    5.4151    7.6150 H   0  0  0  0  0  0  0  0  0  0  0  0
   10.0470    3.9992    8.7169 H   0  0  0  0  0  0  0  0  0  0  0  0
    8.1477    6.2114    8.5433 H   0  0  0  0  0  0  0  0  0  0  0  0
    8.8710    6.2544   10.1605 H   0  0  0  0  0  0  0  0  0  0  0  0
    8.0956    4.7126    9.6157 H   0  0  0  0  0  0  0  0  0  0  0  0
  1  3  2  0
  1  4  1  0
  1  5  1  0
  2  4  1  0
  2  6  1  0
  4  9  1  0
  4 15  1  0
  5  6  1  0
  5  8  1  0
  6  7  2  3
  9 10  2  0
  9 14  1  0
 10 11  1  0
 11 12  2  0
 12 13  1  0
 13 14  2  0
 15 16  2  0
 15 20  1  0
 16 17  1  0
 17 18  2  0
 18 19  1  0
 19 20  2  0
  2 21  1  0
  7 22  1  0
  8 23  1  0
  8 24  1  0
  8 25  1  0
 10 26  1  0
 11 27  1  0
 12 28  1  0
 13 29  1  0
 14 30  1  0
 16 31  1  0
 17 32  1  0
 19 33  1  0
 20 34  1  0
 35 36  1  0
 36 37  2  0
 36 38  1  0
 38 39  1  0
 35 40  1  0
 38 41  1  0
 38 42  1  0
 39 43  1  0
 39 44  1  0
 39 45  1  0
 18 35  1  0
M  END
>  <attachment_point>  (229) 
32

>  <score>  (229) 
<NA>

$$$$
4djw
     RDKit          3D

 48 51  0  0  0  0  0  0  0  0999 V2000
   22.4950   11.8750   22.5810 C   0  0  0  0  0  0  0  0  0  0  0  0
   22.5380    9.4930   22.4640 N   0  0  0  0  0  0  0  0  0  0  0  0
   22.3600   13.0630   22.3480 O   0  0  0  0  0  0  0  0  0  0  0  0
   22.3390   10.6680   21.5610 C   0  0  0  0  0  0  0  0  0  0  0  0
   22.7860   11.3350   23.8120 N   0  0  0  0  0  0  0  0  0  0  0  0
   22.7800    9.9140   23.7010 C   0  0  0  0  0  0  0  0  0  0  0  0
   22.9970    9.1110   24.7490 N   0  0  0  0  0  0  0  0  0  0  0  0
   23.0220   12.1410   25.0180 C   0  0  0  0  0  0  0  0  0  0  0  0
   20.9020   10.6270   21.0050 C   0  0  0  0  0  0  0  0  0  0  0  0
   20.2720    9.4140   20.7470 C   0  0  0  0  0  0  0  0  0  0  0  0
   18.9690    9.3760   20.2600 C   0  0  0  0  0  0  0  0  0  0  0  0
   18.2800   10.5440   20.0210 C   0  0  0  0  0  0  0  0  0  0  0  0
   18.8920   11.7530   20.2590 C   0  0  0  0  0  0  0  0  0  0  0  0
   20.1950   11.7970   20.7440 C   0  0  0  0  0  0  0  0  0  0  0  0
   23.4880   10.6920   20.5300 C   0  0  0  0  0  0  0  0  0  0  0  0
   23.2110   10.7890   19.1730 C   0  0  0  0  0  0  0  0  0  0  0  0
   24.2350   10.8650   18.2430 C   0  0  0  0  0  0  0  0  0  0  0  0
   25.5500   10.8410   18.6560 C   0  0  0  0  0  0  0  0  0  0  0  0
   25.8710   10.7460   20.0070 C   0  0  0  0  0  0  0  0  0  0  0  0
   24.8260   10.6610   20.9430 C   0  0  0  0  0  0  0  0  0  0  0  0
    0.0000    0.0000    0.0000 H   0  0  0  0  0  0  0  0  0  0  0  0
    0.0000    0.0000    0.0000 H   0  0  0  0  0  0  0  0  0  0  0  0
    0.0000    0.0000    0.0000 H   0  0  0  0  0  0  0  0  0  0  0  0
    0.0000    0.0000    0.0000 H   0  0  0  0  0  0  0  0  0  0  0  0
    0.0000    0.0000    0.0000 H   0  0  0  0  0  0  0  0  0  0  0  0
    0.0000    0.0000    0.0000 H   0  0  0  0  0  0  0  0  0  0  0  0
    0.0000    0.0000    0.0000 H   0  0  0  0  0  0  0  0  0  0  0  0
    0.0000    0.0000    0.0000 H   0  0  0  0  0  0  0  0  0  0  0  0
    0.0000    0.0000    0.0000 H   0  0  0  0  0  0  0  0  0  0  0  0
    0.0000    0.0000    0.0000 H   0  0  0  0  0  0  0  0  0  0  0  0
    0.0000    0.0000    0.0000 H   0  0  0  0  0  0  0  0  0  0  0  0
    0.0000    0.0000    0.0000 H   0  0  0  0  0  0  0  0  0  0  0  0
    0.0000    0.0000    0.0000 H   0  0  0  0  0  0  0  0  0  0  0  0
    0.0000    0.0000    0.0000 H   0  0  0  0  0  0  0  0  0  0  0  0
   12.4322    5.2750    9.0777 C   0  0  0  0  0  0  0  0  0  0  0  0
   11.7103    4.1980    9.4792 C   0  0  0  0  0  0  0  0  0  0  0  0
   10.6503    3.7416    8.7130 C   0  0  0  0  0  0  0  0  0  0  0  0
   10.3310    4.3922    7.5329 C   0  0  0  0  0  0  0  0  0  0  0  0
   11.0943    5.4833    7.1660 C   0  0  0  0  0  0  0  0  0  0  0  0
   10.7866    6.1609    5.9677 O   0  0  0  0  0  0  0  0  0  0  0  0
   11.5539    7.2819    5.5694 C   0  0  0  0  0  0  0  0  0  0  0  0
   12.1191    5.9043    7.9310 N   0  0  0  0  0  0  0  0  0  0  0  0
   11.9883    3.7055   10.4176 H   0  0  0  0  0  0  0  0  0  0  0  0
   10.0654    2.8789    9.0265 H   0  0  0  0  0  0  0  0  0  0  0  0
    9.5108    4.0757    6.8961 H   0  0  0  0  0  0  0  0  0  0  0  0
   12.6365    7.0688    5.6471 H   0  0  0  0  0  0  0  0  0  0  0  0
   11.2589    8.1938    6.1553 H   0  0  0  0  0  0  0  0  0  0  0  0
   11.3041    7.4825    4.4940 H   0  0  0  0  0  0  0  0  0  0  0  0
  1  3  2  0
  1  4  1  0
  1  5  1  0
  2  4  1  0
  2  6  1  0
  4  9  1  0
  4 15  1  0
  5  6  1  0
  5  8  1  0
  6  7  2  3
  9 10  2  0
  9 14  1  0
 10 11  1  0
 11 12  2  0
 12 13  1  0
 13 14  2  0
 15 16  2  0
 15 20  1  0
 16 17  1  0
 17 18  2  0
 18 19  1  0
 19 20  2  0
  2 21  1  0
  7 22  1  0
  8 23  1  0
  8 24  1  0
  8 25  1  0
 10 26  1  0
 11 27  1  0
 12 28  1  0
 13 29  1  0
 14 30  1  0
 16 31  1  0
 17 32  1  0
 19 33  1  0
 20 34  1  0
 35 36  2  0
 36 37  1  0
 37 38  2  0
 38 39  1  0
 39 40  1  0
 40 41  1  0
 39 42  2  0
 42 35  1  0
 36 43  1  0
 37 44  1  0
 38 45  1  0
 41 46  1  0
 41 47  1  0
 41 48  1  0
 18 35  1  0
M  END
>  <attachment_point>  (230) 
32

>  <score>  (230) 
<NA>

$$$$
4djw
     RDKit          3D

 56 59  0  0  0  0  0  0  0  0999 V2000
   22.4950   11.8750   22.5810 C   0  0  0  0  0  0  0  0  0  0  0  0
   22.5380    9.4930   22.4640 N   0  0  0  0  0  0  0  0  0  0  0  0
   22.3600   13.0630   22.3480 O   0  0  0  0  0  0  0  0  0  0  0  0
   22.3390   10.6680   21.5610 C   0  0  0  0  0  0  0  0  0  0  0  0
   22.7860   11.3350   23.8120 N   0  0  0  0  0  0  0  0  0  0  0  0
   22.7800    9.9140   23.7010 C   0  0  0  0  0  0  0  0  0  0  0  0
   22.9970    9.1110   24.7490 N   0  0  0  0  0  0  0  0  0  0  0  0
   23.0220   12.1410   25.0180 C   0  0  0  0  0  0  0  0  0  0  0  0
   20.9020   10.6270   21.0050 C   0  0  0  0  0  0  0  0  0  0  0  0
   20.2720    9.4140   20.7470 C   0  0  0  0  0  0  0  0  0  0  0  0
   18.9690    9.3760   20.2600 C   0  0  0  0  0  0  0  0  0  0  0  0
   18.2800   10.5440   20.0210 C   0  0  0  0  0  0  0  0  0  0  0  0
   18.8920   11.7530   20.2590 C   0  0  0  0  0  0  0  0  0  0  0  0
   20.1950   11.7970   20.7440 C   0  0  0  0  0  0  0  0  0  0  0  0
   23.4880   10.6920   20.5300 C   0  0  0  0  0  0  0  0  0  0  0  0
   23.2110   10.7890   19.1730 C   0  0  0  0  0  0  0  0  0  0  0  0
   24.2350   10.8650   18.2430 C   0  0  0  0  0  0  0  0  0  0  0  0
   25.5500   10.8410   18.6560 C   0  0  0  0  0  0  0  0  0  0  0  0
   25.8710   10.7460   20.0070 C   0  0  0  0  0  0  0  0  0  0  0  0
   24.8260   10.6610   20.9430 C   0  0  0  0  0  0  0  0  0  0  0  0
    0.0000    0.0000    0.0000 H   0  0  0  0  0  0  0  0  0  0  0  0
    0.0000    0.0000    0.0000 H   0  0  0  0  0  0  0  0  0  0  0  0
    0.0000    0.0000    0.0000 H   0  0  0  0  0  0  0  0  0  0  0  0
    0.0000    0.0000    0.0000 H   0  0  0  0  0  0  0  0  0  0  0  0
    0.0000    0.0000    0.0000 H   0  0  0  0  0  0  0  0  0  0  0  0
    0.0000    0.0000    0.0000 H   0  0  0  0  0  0  0  0  0  0  0  0
    0.0000    0.0000    0.0000 H   0  0  0  0  0  0  0  0  0  0  0  0
    0.0000    0.0000    0.0000 H   0  0  0  0  0  0  0  0  0  0  0  0
    0.0000    0.0000    0.0000 H   0  0  0  0  0  0  0  0  0  0  0  0
    0.0000    0.0000    0.0000 H   0  0  0  0  0  0  0  0  0  0  0  0
    0.0000    0.0000    0.0000 H   0  0  0  0  0  0  0  0  0  0  0  0
    0.0000    0.0000    0.0000 H   0  0  0  0  0  0  0  0  0  0  0  0
    0.0000    0.0000    0.0000 H   0  0  0  0  0  0  0  0  0  0  0  0
    0.0000    0.0000    0.0000 H   0  0  0  0  0  0  0  0  0  0  0  0
   12.4816    5.2960    9.1138 N   0  0  0  0  0  0  0  0  0  0  0  0
   12.0018    4.0534    9.7162 C   0  0  0  0  0  0  0  0  0  0  0  0
   11.6160    4.4031   11.1256 C   0  0  0  0  0  0  0  0  0  0  0  0
   10.3944    5.2076   11.0886 N   0  0  0  0  0  0  0  0  0  0  0  0
   10.1372    5.5405   12.4868 C   0  0  0  0  0  0  0  0  0  0  0  0
    8.7715    6.1219   12.7004 C   0  0  0  0  0  0  0  0  0  0  0  0
    8.6896    6.5227   14.0309 O   0  0  0  0  0  0  0  0  0  0  0  0
   10.6744    6.4297   10.3408 C   0  0  0  0  0  0  0  0  0  0  0  0
   11.3391    6.1727    9.0241 C   0  0  0  0  0  0  0  0  0  0  0  0
   11.1129    3.6608    9.1869 H   0  0  0  0  0  0  0  0  0  0  0  0
   12.8558    3.3593    9.6895 H   0  0  0  0  0  0  0  0  0  0  0  0
   11.4811    3.5262   11.7769 H   0  0  0  0  0  0  0  0  0  0  0  0
   12.4084    5.0929   11.5058 H   0  0  0  0  0  0  0  0  0  0  0  0
   10.1790    4.5548   13.0222 H   0  0  0  0  0  0  0  0  0  0  0  0
   10.9369    6.1575   12.9342 H   0  0  0  0  0  0  0  0  0  0  0  0
    7.9936    5.3467   12.5457 H   0  0  0  0  0  0  0  0  0  0  0  0
    8.6428    7.0145   12.0744 H   0  0  0  0  0  0  0  0  0  0  0  0
    9.5825    6.6222   14.4290 H   0  0  0  0  0  0  0  0  0  0  0  0
   11.3287    7.0854   10.9398 H   0  0  0  0  0  0  0  0  0  0  0  0
    9.7278    6.9590   10.1344 H   0  0  0  0  0  0  0  0  0  0  0  0
   11.7153    7.1429    8.6353 H   0  0  0  0  0  0  0  0  0  0  0  0
   10.6567    5.7682    8.2505 H   0  0  0  0  0  0  0  0  0  0  0  0
  1  3  2  0
  1  4  1  0
  1  5  1  0
  2  4  1  0
  2  6  1  0
  4  9  1  0
  4 15  1  0
  5  6  1  0
  5  8  1  0
  6  7  2  3
  9 10  2  0
  9 14  1  0
 10 11  1  0
 11 12  2  0
 12 13  1  0
 13 14  2  0
 15 16  2  0
 15 20  1  0
 16 17  1  0
 17 18  2  0
 18 19  1  0
 19 20  2  0
  2 21  1  0
  7 22  1  0
  8 23  1  0
  8 24  1  0
  8 25  1  0
 10 26  1  0
 11 27  1  0
 12 28  1  0
 13 29  1  0
 14 30  1  0
 16 31  1  0
 17 32  1  0
 19 33  1  0
 20 34  1  0
 35 36  1  0
 36 37  1  0
 37 38  1  0
 38 39  1  0
 39 40  1  0
 40 41  1  0
 38 42  1  0
 42 43  1  0
 43 35  1  0
 36 44  1  0
 36 45  1  0
 37 46  1  0
 37 47  1  0
 39 48  1  0
 39 49  1  0
 40 50  1  0
 40 51  1  0
 41 52  1  0
 42 53  1  0
 42 54  1  0
 43 55  1  0
 43 56  1  0
 18 35  1  0
M  END
>  <attachment_point>  (231) 
32

>  <score>  (231) 
<NA>

$$$$
4djw
     RDKit          3D

 49 52  0  0  0  0  0  0  0  0999 V2000
   22.4950   11.8750   22.5810 C   0  0  0  0  0  0  0  0  0  0  0  0
   22.5380    9.4930   22.4640 N   0  0  0  0  0  0  0  0  0  0  0  0
   22.3600   13.0630   22.3480 O   0  0  0  0  0  0  0  0  0  0  0  0
   22.3390   10.6680   21.5610 C   0  0  0  0  0  0  0  0  0  0  0  0
   22.7860   11.3350   23.8120 N   0  0  0  0  0  0  0  0  0  0  0  0
   22.7800    9.9140   23.7010 C   0  0  0  0  0  0  0  0  0  0  0  0
   22.9970    9.1110   24.7490 N   0  0  0  0  0  0  0  0  0  0  0  0
   23.0220   12.1410   25.0180 C   0  0  0  0  0  0  0  0  0  0  0  0
   20.9020   10.6270   21.0050 C   0  0  0  0  0  0  0  0  0  0  0  0
   20.2720    9.4140   20.7470 C   0  0  0  0  0  0  0  0  0  0  0  0
   18.9690    9.3760   20.2600 C   0  0  0  0  0  0  0  0  0  0  0  0
   18.2800   10.5440   20.0210 C   0  0  0  0  0  0  0  0  0  0  0  0
   18.8920   11.7530   20.2590 C   0  0  0  0  0  0  0  0  0  0  0  0
   20.1950   11.7970   20.7440 C   0  0  0  0  0  0  0  0  0  0  0  0
   23.4880   10.6920   20.5300 C   0  0  0  0  0  0  0  0  0  0  0  0
   23.2110   10.7890   19.1730 C   0  0  0  0  0  0  0  0  0  0  0  0
   24.2350   10.8650   18.2430 C   0  0  0  0  0  0  0  0  0  0  0  0
   25.5500   10.8410   18.6560 C   0  0  0  0  0  0  0  0  0  0  0  0
   25.8710   10.7460   20.0070 C   0  0  0  0  0  0  0  0  0  0  0  0
   24.8260   10.6610   20.9430 C   0  0  0  0  0  0  0  0  0  0  0  0
    0.0000    0.0000    0.0000 H   0  0  0  0  0  0  0  0  0  0  0  0
    0.0000    0.0000    0.0000 H   0  0  0  0  0  0  0  0  0  0  0  0
    0.0000    0.0000    0.0000 H   0  0  0  0  0  0  0  0  0  0  0  0
    0.0000    0.0000    0.0000 H   0  0  0  0  0  0  0  0  0  0  0  0
    0.0000    0.0000    0.0000 H   0  0  0  0  0  0  0  0  0  0  0  0
    0.0000    0.0000    0.0000 H   0  0  0  0  0  0  0  0  0  0  0  0
    0.0000    0.0000    0.0000 H   0  0  0  0  0  0  0  0  0  0  0  0
    0.0000    0.0000    0.0000 H   0  0  0  0  0  0  0  0  0  0  0  0
    0.0000    0.0000    0.0000 H   0  0  0  0  0  0  0  0  0  0  0  0
    0.0000    0.0000    0.0000 H   0  0  0  0  0  0  0  0  0  0  0  0
    0.0000    0.0000    0.0000 H   0  0  0  0  0  0  0  0  0  0  0  0
    0.0000    0.0000    0.0000 H   0  0  0  0  0  0  0  0  0  0  0  0
    0.0000    0.0000    0.0000 H   0  0  0  0  0  0  0  0  0  0  0  0
    0.0000    0.0000    0.0000 H   0  0  0  0  0  0  0  0  0  0  0  0
   12.3930    5.2584    9.0491 N   0  0  0  0  0  0  0  0  0  0  0  0
   12.9844    4.0158    8.5944 C   0  0  0  0  0  0  0  0  0  0  0  0
   14.2249    4.2196    7.8343 C   0  0  0  0  0  0  0  0  0  0  0  0
   14.1736    4.3853    6.4633 C   0  0  0  0  0  0  0  0  0  0  0  0
   15.3628    4.5721    5.8043 C   0  0  0  0  0  0  0  0  0  0  0  0
   16.5793    4.5983    6.4585 C   0  0  0  0  0  0  0  0  0  0  0  0
   16.6054    4.4350    7.7931 N   0  0  0  0  0  0  0  0  0  0  0  0
   15.4594    4.2491    8.4753 C   0  0  0  0  0  0  0  0  0  0  0  0
   11.7906    5.1136    9.8933 H   0  0  0  0  0  0  0  0  0  0  0  0
   13.1520    3.3617    9.4867 H   0  0  0  0  0  0  0  0  0  0  0  0
   12.2530    3.5337    7.9527 H   0  0  0  0  0  0  0  0  0  0  0  0
   13.2044    4.3632    5.9519 H   0  0  0  0  0  0  0  0  0  0  0  0
   15.3410    4.7020    4.7430 H   0  0  0  0  0  0  0  0  0  0  0  0
   17.5051    4.7469    5.9210 H   0  0  0  0  0  0  0  0  0  0  0  0
   15.4642    4.1141    9.5667 H   0  0  0  0  0  0  0  0  0  0  0  0
  1  3  2  0
  1  4  1  0
  1  5  1  0
  2  4  1  0
  2  6  1  0
  4  9  1  0
  4 15  1  0
  5  6  1  0
  5  8  1  0
  6  7  2  3
  9 10  2  0
  9 14  1  0
 10 11  1  0
 11 12  2  0
 12 13  1  0
 13 14  2  0
 15 16  2  0
 15 20  1  0
 16 17  1  0
 17 18  2  0
 18 19  1  0
 19 20  2  0
  2 21  1  0
  7 22  1  0
  8 23  1  0
  8 24  1  0
  8 25  1  0
 10 26  1  0
 11 27  1  0
 12 28  1  0
 13 29  1  0
 14 30  1  0
 16 31  1  0
 17 32  1  0
 19 33  1  0
 20 34  1  0
 35 36  1  0
 36 37  1  0
 37 38  2  0
 38 39  1  0
 39 40  2  0
 40 41  1  0
 41 42  2  0
 42 37  1  0
 35 43  1  0
 36 44  1  0
 36 45  1  0
 38 46  1  0
 39 47  1  0
 40 48  1  0
 42 49  1  0
 18 35  1  0
M  END
>  <attachment_point>  (232) 
32

>  <score>  (232) 
<NA>

$$$$
4djw
     RDKit          3D

 44 46  0  0  0  0  0  0  0  0999 V2000
   22.4950   11.8750   22.5810 C   0  0  0  0  0  0  0  0  0  0  0  0
   22.5380    9.4930   22.4640 N   0  0  0  0  0  0  0  0  0  0  0  0
   22.3600   13.0630   22.3480 O   0  0  0  0  0  0  0  0  0  0  0  0
   22.3390   10.6680   21.5610 C   0  0  0  0  0  0  0  0  0  0  0  0
   22.7860   11.3350   23.8120 N   0  0  0  0  0  0  0  0  0  0  0  0
   22.7800    9.9140   23.7010 C   0  0  0  0  0  0  0  0  0  0  0  0
   22.9970    9.1110   24.7490 N   0  0  0  0  0  0  0  0  0  0  0  0
   23.0220   12.1410   25.0180 C   0  0  0  0  0  0  0  0  0  0  0  0
   20.9020   10.6270   21.0050 C   0  0  0  0  0  0  0  0  0  0  0  0
   20.2720    9.4140   20.7470 C   0  0  0  0  0  0  0  0  0  0  0  0
   18.9690    9.3760   20.2600 C   0  0  0  0  0  0  0  0  0  0  0  0
   18.2800   10.5440   20.0210 C   0  0  0  0  0  0  0  0  0  0  0  0
   18.8920   11.7530   20.2590 C   0  0  0  0  0  0  0  0  0  0  0  0
   20.1950   11.7970   20.7440 C   0  0  0  0  0  0  0  0  0  0  0  0
   23.4880   10.6920   20.5300 C   0  0  0  0  0  0  0  0  0  0  0  0
   23.2110   10.7890   19.1730 C   0  0  0  0  0  0  0  0  0  0  0  0
   24.2350   10.8650   18.2430 C   0  0  0  0  0  0  0  0  0  0  0  0
   25.5500   10.8410   18.6560 C   0  0  0  0  0  0  0  0  0  0  0  0
   25.8710   10.7460   20.0070 C   0  0  0  0  0  0  0  0  0  0  0  0
   24.8260   10.6610   20.9430 C   0  0  0  0  0  0  0  0  0  0  0  0
    0.0000    0.0000    0.0000 H   0  0  0  0  0  0  0  0  0  0  0  0
    0.0000    0.0000    0.0000 H   0  0  0  0  0  0  0  0  0  0  0  0
    0.0000    0.0000    0.0000 H   0  0  0  0  0  0  0  0  0  0  0  0
    0.0000    0.0000    0.0000 H   0  0  0  0  0  0  0  0  0  0  0  0
    0.0000    0.0000    0.0000 H   0  0  0  0  0  0  0  0  0  0  0  0
    0.0000    0.0000    0.0000 H   0  0  0  0  0  0  0  0  0  0  0  0
    0.0000    0.0000    0.0000 H   0  0  0  0  0  0  0  0  0  0  0  0
    0.0000    0.0000    0.0000 H   0  0  0  0  0  0  0  0  0  0  0  0
    0.0000    0.0000    0.0000 H   0  0  0  0  0  0  0  0  0  0  0  0
    0.0000    0.0000    0.0000 H   0  0  0  0  0  0  0  0  0  0  0  0
    0.0000    0.0000    0.0000 H   0  0  0  0  0  0  0  0  0  0  0  0
    0.0000    0.0000    0.0000 H   0  0  0  0  0  0  0  0  0  0  0  0
    0.0000    0.0000    0.0000 H   0  0  0  0  0  0  0  0  0  0  0  0
    0.0000    0.0000    0.0000 H   0  0  0  0  0  0  0  0  0  0  0  0
   12.3844    5.2548    9.0428 C   0  0  0  0  0  0  0  0  0  0  0  0
   12.4724    4.0262    8.6601 C   0  0  0  0  0  0  0  0  0  0  0  0
   11.4503    3.3985    7.8453 C   0  0  0  0  0  0  0  0  0  0  0  0
   10.4536    4.0860    7.5096 O   0  0  0  0  0  0  0  0  0  0  0  0
   11.5281    2.0449    7.4127 N   0  0  0  0  0  0  0  0  0  0  0  0
   10.5379    1.5461    6.6619 O   0  0  0  0  0  0  0  0  0  0  0  0
   11.6365    5.9513    8.8545 H   0  0  0  0  0  0  0  0  0  0  0  0
   13.3327    3.3960    8.9369 H   0  0  0  0  0  0  0  0  0  0  0  0
   12.3488    1.4926    7.6940 H   0  0  0  0  0  0  0  0  0  0  0  0
   10.1652    2.2779    6.1155 H   0  0  0  0  0  0  0  0  0  0  0  0
  1  3  2  0
  1  4  1  0
  1  5  1  0
  2  4  1  0
  2  6  1  0
  4  9  1  0
  4 15  1  0
  5  6  1  0
  5  8  1  0
  6  7  2  3
  9 10  2  0
  9 14  1  0
 10 11  1  0
 11 12  2  0
 12 13  1  0
 13 14  2  0
 15 16  2  0
 15 20  1  0
 16 17  1  0
 17 18  2  0
 18 19  1  0
 19 20  2  0
  2 21  1  0
  7 22  1  0
  8 23  1  0
  8 24  1  0
  8 25  1  0
 10 26  1  0
 11 27  1  0
 12 28  1  0
 13 29  1  0
 14 30  1  0
 16 31  1  0
 17 32  1  0
 19 33  1  0
 20 34  1  0
 35 36  2  3
 36 37  1  0
 37 38  2  0
 37 39  1  0
 39 40  1  0
 35 41  1  0
 36 42  1  0
 39 43  1  0
 40 44  1  0
 18 35  1  0
M  END
>  <attachment_point>  (233) 
32

>  <score>  (233) 
<NA>

$$$$
4djw
     RDKit          3D

 49 51  0  0  0  0  0  0  0  0999 V2000
   22.4950   11.8750   22.5810 C   0  0  0  0  0  0  0  0  0  0  0  0
   22.5380    9.4930   22.4640 N   0  0  0  0  0  0  0  0  0  0  0  0
   22.3600   13.0630   22.3480 O   0  0  0  0  0  0  0  0  0  0  0  0
   22.3390   10.6680   21.5610 C   0  0  0  0  0  0  0  0  0  0  0  0
   22.7860   11.3350   23.8120 N   0  0  0  0  0  0  0  0  0  0  0  0
   22.7800    9.9140   23.7010 C   0  0  0  0  0  0  0  0  0  0  0  0
   22.9970    9.1110   24.7490 N   0  0  0  0  0  0  0  0  0  0  0  0
   23.0220   12.1410   25.0180 C   0  0  0  0  0  0  0  0  0  0  0  0
   20.9020   10.6270   21.0050 C   0  0  0  0  0  0  0  0  0  0  0  0
   20.2720    9.4140   20.7470 C   0  0  0  0  0  0  0  0  0  0  0  0
   18.9690    9.3760   20.2600 C   0  0  0  0  0  0  0  0  0  0  0  0
   18.2800   10.5440   20.0210 C   0  0  0  0  0  0  0  0  0  0  0  0
   18.8920   11.7530   20.2590 C   0  0  0  0  0  0  0  0  0  0  0  0
   20.1950   11.7970   20.7440 C   0  0  0  0  0  0  0  0  0  0  0  0
   23.4880   10.6920   20.5300 C   0  0  0  0  0  0  0  0  0  0  0  0
   23.2110   10.7890   19.1730 C   0  0  0  0  0  0  0  0  0  0  0  0
   24.2350   10.8650   18.2430 C   0  0  0  0  0  0  0  0  0  0  0  0
   25.5500   10.8410   18.6560 C   0  0  0  0  0  0  0  0  0  0  0  0
   25.8710   10.7460   20.0070 C   0  0  0  0  0  0  0  0  0  0  0  0
   24.8260   10.6610   20.9430 C   0  0  0  0  0  0  0  0  0  0  0  0
    0.0000    0.0000    0.0000 H   0  0  0  0  0  0  0  0  0  0  0  0
    0.0000    0.0000    0.0000 H   0  0  0  0  0  0  0  0  0  0  0  0
    0.0000    0.0000    0.0000 H   0  0  0  0  0  0  0  0  0  0  0  0
    0.0000    0.0000    0.0000 H   0  0  0  0  0  0  0  0  0  0  0  0
    0.0000    0.0000    0.0000 H   0  0  0  0  0  0  0  0  0  0  0  0
    0.0000    0.0000    0.0000 H   0  0  0  0  0  0  0  0  0  0  0  0
    0.0000    0.0000    0.0000 H   0  0  0  0  0  0  0  0  0  0  0  0
    0.0000    0.0000    0.0000 H   0  0  0  0  0  0  0  0  0  0  0  0
    0.0000    0.0000    0.0000 H   0  0  0  0  0  0  0  0  0  0  0  0
    0.0000    0.0000    0.0000 H   0  0  0  0  0  0  0  0  0  0  0  0
    0.0000    0.0000    0.0000 H   0  0  0  0  0  0  0  0  0  0  0  0
    0.0000    0.0000    0.0000 H   0  0  0  0  0  0  0  0  0  0  0  0
    0.0000    0.0000    0.0000 H   0  0  0  0  0  0  0  0  0  0  0  0
    0.0000    0.0000    0.0000 H   0  0  0  0  0  0  0  0  0  0  0  0
   12.4486    5.2820    9.0897 C   0  0  0  0  0  0  0  0  0  0  0  0
   11.3279    5.8520    9.0709 O   0  0  0  0  0  0  0  0  0  0  0  0
   12.5993    4.1301    8.2696 N   0  0  0  0  0  0  0  0  0  0  0  0
   11.4763    3.6796    7.4696 C   0  0  0  0  0  0  0  0  0  0  0  0
   11.8754    2.4411    6.6842 C   0  0  0  0  0  0  0  0  0  0  0  0
   12.2411    1.4557    7.5724 O   0  0  0  0  0  0  0  0  0  0  0  0
   12.6245    0.2804    6.9732 C   0  0  0  0  0  0  0  0  0  0  0  0
   13.5085    3.5939    8.2283 H   0  0  0  0  0  0  0  0  0  0  0  0
   10.5730    3.5077    8.0605 H   0  0  0  0  0  0  0  0  0  0  0  0
   11.2358    4.4564    6.6975 H   0  0  0  0  0  0  0  0  0  0  0  0
   11.1110    2.1456    5.9594 H   0  0  0  0  0  0  0  0  0  0  0  0
   12.7905    2.6939    6.0872 H   0  0  0  0  0  0  0  0  0  0  0  0
   11.8264   -0.1736    6.3506 H   0  0  0  0  0  0  0  0  0  0  0  0
   12.9164   -0.4355    7.7745 H   0  0  0  0  0  0  0  0  0  0  0  0
   13.5218    0.3897    6.3146 H   0  0  0  0  0  0  0  0  0  0  0  0
  1  3  2  0
  1  4  1  0
  1  5  1  0
  2  4  1  0
  2  6  1  0
  4  9  1  0
  4 15  1  0
  5  6  1  0
  5  8  1  0
  6  7  2  3
  9 10  2  0
  9 14  1  0
 10 11  1  0
 11 12  2  0
 12 13  1  0
 13 14  2  0
 15 16  2  0
 15 20  1  0
 16 17  1  0
 17 18  2  0
 18 19  1  0
 19 20  2  0
  2 21  1  0
  7 22  1  0
  8 23  1  0
  8 24  1  0
  8 25  1  0
 10 26  1  0
 11 27  1  0
 12 28  1  0
 13 29  1  0
 14 30  1  0
 16 31  1  0
 17 32  1  0
 19 33  1  0
 20 34  1  0
 35 36  2  0
 35 37  1  0
 37 38  1  0
 38 39  1  0
 39 40  1  0
 40 41  1  0
 37 42  1  0
 38 43  1  0
 38 44  1  0
 39 45  1  0
 39 46  1  0
 41 47  1  0
 41 48  1  0
 41 49  1  0
 18 35  1  0
M  END
>  <attachment_point>  (234) 
32

>  <score>  (234) 
<NA>

$$$$
4djw
     RDKit          3D

 43 46  0  0  0  0  0  0  0  0999 V2000
   22.4950   11.8750   22.5810 C   0  0  0  0  0  0  0  0  0  0  0  0
   22.5380    9.4930   22.4640 N   0  0  0  0  0  0  0  0  0  0  0  0
   22.3600   13.0630   22.3480 O   0  0  0  0  0  0  0  0  0  0  0  0
   22.3390   10.6680   21.5610 C   0  0  0  0  0  0  0  0  0  0  0  0
   22.7860   11.3350   23.8120 N   0  0  0  0  0  0  0  0  0  0  0  0
   22.7800    9.9140   23.7010 C   0  0  0  0  0  0  0  0  0  0  0  0
   22.9970    9.1110   24.7490 N   0  0  0  0  0  0  0  0  0  0  0  0
   23.0220   12.1410   25.0180 C   0  0  0  0  0  0  0  0  0  0  0  0
   20.9020   10.6270   21.0050 C   0  0  0  0  0  0  0  0  0  0  0  0
   20.2720    9.4140   20.7470 C   0  0  0  0  0  0  0  0  0  0  0  0
   18.9690    9.3760   20.2600 C   0  0  0  0  0  0  0  0  0  0  0  0
   18.2800   10.5440   20.0210 C   0  0  0  0  0  0  0  0  0  0  0  0
   18.8920   11.7530   20.2590 C   0  0  0  0  0  0  0  0  0  0  0  0
   20.1950   11.7970   20.7440 C   0  0  0  0  0  0  0  0  0  0  0  0
   23.4880   10.6920   20.5300 C   0  0  0  0  0  0  0  0  0  0  0  0
   23.2110   10.7890   19.1730 C   0  0  0  0  0  0  0  0  0  0  0  0
   24.2350   10.8650   18.2430 C   0  0  0  0  0  0  0  0  0  0  0  0
   25.5500   10.8410   18.6560 C   0  0  0  0  0  0  0  0  0  0  0  0
   25.8710   10.7460   20.0070 C   0  0  0  0  0  0  0  0  0  0  0  0
   24.8260   10.6610   20.9430 C   0  0  0  0  0  0  0  0  0  0  0  0
    0.0000    0.0000    0.0000 H   0  0  0  0  0  0  0  0  0  0  0  0
    0.0000    0.0000    0.0000 H   0  0  0  0  0  0  0  0  0  0  0  0
    0.0000    0.0000    0.0000 H   0  0  0  0  0  0  0  0  0  0  0  0
    0.0000    0.0000    0.0000 H   0  0  0  0  0  0  0  0  0  0  0  0
    0.0000    0.0000    0.0000 H   0  0  0  0  0  0  0  0  0  0  0  0
    0.0000    0.0000    0.0000 H   0  0  0  0  0  0  0  0  0  0  0  0
    0.0000    0.0000    0.0000 H   0  0  0  0  0  0  0  0  0  0  0  0
    0.0000    0.0000    0.0000 H   0  0  0  0  0  0  0  0  0  0  0  0
    0.0000    0.0000    0.0000 H   0  0  0  0  0  0  0  0  0  0  0  0
    0.0000    0.0000    0.0000 H   0  0  0  0  0  0  0  0  0  0  0  0
    0.0000    0.0000    0.0000 H   0  0  0  0  0  0  0  0  0  0  0  0
    0.0000    0.0000    0.0000 H   0  0  0  0  0  0  0  0  0  0  0  0
    0.0000    0.0000    0.0000 H   0  0  0  0  0  0  0  0  0  0  0  0
    0.0000    0.0000    0.0000 H   0  0  0  0  0  0  0  0  0  0  0  0
   12.4402    5.2784    9.0835 C   0  0  0  0  0  0  0  0  0  0  0  0
   12.6643    4.6696    7.8704 C   0  0  0  0  0  0  0  0  0  0  0  0
   11.5814    4.2405    7.1394 C   0  0  0  0  0  0  0  0  0  0  0  0
   10.3066    4.4135    7.6052 N   0  0  0  0  0  0  0  0  0  0  0  0
   10.1163    5.0091    8.7892 C   0  0  0  0  0  0  0  0  0  0  0  0
   11.1604    5.4276    9.5034 N   0  0  0  0  0  0  0  0  0  0  0  0
   13.6785    4.5315    7.4990 H   0  0  0  0  0  0  0  0  0  0  0  0
   11.7307    3.7615    6.1878 H   0  0  0  0  0  0  0  0  0  0  0  0
    9.1219    5.1460    9.1561 H   0  0  0  0  0  0  0  0  0  0  0  0
  1  3  2  0
  1  4  1  0
  1  5  1  0
  2  4  1  0
  2  6  1  0
  4  9  1  0
  4 15  1  0
  5  6  1  0
  5  8  1  0
  6  7  2  3
  9 10  2  0
  9 14  1  0
 10 11  1  0
 11 12  2  0
 12 13  1  0
 13 14  2  0
 15 16  2  0
 15 20  1  0
 16 17  1  0
 17 18  2  0
 18 19  1  0
 19 20  2  0
  2 21  1  0
  7 22  1  0
  8 23  1  0
  8 24  1  0
  8 25  1  0
 10 26  1  0
 11 27  1  0
 12 28  1  0
 13 29  1  0
 14 30  1  0
 16 31  1  0
 17 32  1  0
 19 33  1  0
 20 34  1  0
 35 36  2  0
 36 37  1  0
 37 38  2  0
 38 39  1  0
 39 40  2  0
 40 35  1  0
 36 41  1  0
 37 42  1  0
 39 43  1  0
 18 35  1  0
M  END
>  <attachment_point>  (235) 
32

>  <score>  (235) 
<NA>

$$$$
4djw
     RDKit          3D

 45 48  0  0  0  0  0  0  0  0999 V2000
   22.4950   11.8750   22.5810 C   0  0  0  0  0  0  0  0  0  0  0  0
   22.5380    9.4930   22.4640 N   0  0  0  0  0  0  0  0  0  0  0  0
   22.3600   13.0630   22.3480 O   0  0  0  0  0  0  0  0  0  0  0  0
   22.3390   10.6680   21.5610 C   0  0  0  0  0  0  0  0  0  0  0  0
   22.7860   11.3350   23.8120 N   0  0  0  0  0  0  0  0  0  0  0  0
   22.7800    9.9140   23.7010 C   0  0  0  0  0  0  0  0  0  0  0  0
   22.9970    9.1110   24.7490 N   0  0  0  0  0  0  0  0  0  0  0  0
   23.0220   12.1410   25.0180 C   0  0  0  0  0  0  0  0  0  0  0  0
   20.9020   10.6270   21.0050 C   0  0  0  0  0  0  0  0  0  0  0  0
   20.2720    9.4140   20.7470 C   0  0  0  0  0  0  0  0  0  0  0  0
   18.9690    9.3760   20.2600 C   0  0  0  0  0  0  0  0  0  0  0  0
   18.2800   10.5440   20.0210 C   0  0  0  0  0  0  0  0  0  0  0  0
   18.8920   11.7530   20.2590 C   0  0  0  0  0  0  0  0  0  0  0  0
   20.1950   11.7970   20.7440 C   0  0  0  0  0  0  0  0  0  0  0  0
   23.4880   10.6920   20.5300 C   0  0  0  0  0  0  0  0  0  0  0  0
   23.2110   10.7890   19.1730 C   0  0  0  0  0  0  0  0  0  0  0  0
   24.2350   10.8650   18.2430 C   0  0  0  0  0  0  0  0  0  0  0  0
   25.5500   10.8410   18.6560 C   0  0  0  0  0  0  0  0  0  0  0  0
   25.8710   10.7460   20.0070 C   0  0  0  0  0  0  0  0  0  0  0  0
   24.8260   10.6610   20.9430 C   0  0  0  0  0  0  0  0  0  0  0  0
    0.0000    0.0000    0.0000 H   0  0  0  0  0  0  0  0  0  0  0  0
    0.0000    0.0000    0.0000 H   0  0  0  0  0  0  0  0  0  0  0  0
    0.0000    0.0000    0.0000 H   0  0  0  0  0  0  0  0  0  0  0  0
    0.0000    0.0000    0.0000 H   0  0  0  0  0  0  0  0  0  0  0  0
    0.0000    0.0000    0.0000 H   0  0  0  0  0  0  0  0  0  0  0  0
    0.0000    0.0000    0.0000 H   0  0  0  0  0  0  0  0  0  0  0  0
    0.0000    0.0000    0.0000 H   0  0  0  0  0  0  0  0  0  0  0  0
    0.0000    0.0000    0.0000 H   0  0  0  0  0  0  0  0  0  0  0  0
    0.0000    0.0000    0.0000 H   0  0  0  0  0  0  0  0  0  0  0  0
    0.0000    0.0000    0.0000 H   0  0  0  0  0  0  0  0  0  0  0  0
    0.0000    0.0000    0.0000 H   0  0  0  0  0  0  0  0  0  0  0  0
    0.0000    0.0000    0.0000 H   0  0  0  0  0  0  0  0  0  0  0  0
    0.0000    0.0000    0.0000 H   0  0  0  0  0  0  0  0  0  0  0  0
    0.0000    0.0000    0.0000 H   0  0  0  0  0  0  0  0  0  0  0  0
   12.4604    5.2870    9.0983 C   0  0  0  0  0  0  0  0  0  0  0  0
   12.9399    4.8856    7.7247 C   0  0  0  0  0  0  0  0  0  0  0  0
   13.3734    3.6733    7.3051 C   0  0  0  0  0  0  0  0  0  0  0  0
   13.7552    3.5380    6.0329 C   0  0  0  0  0  0  0  0  0  0  0  0
   13.6790    4.6493    5.2362 C   0  0  0  0  0  0  0  0  0  0  0  0
   13.0771    5.8374    6.2981 S   0  0  0  0  0  0  0  0  0  0  0  0
   11.7169    6.1234    8.9422 H   0  0  0  0  0  0  0  0  0  0  0  0
   11.9363    4.4097    9.5314 H   0  0  0  0  0  0  0  0  0  0  0  0
   13.3985    2.8317    8.0283 H   0  0  0  0  0  0  0  0  0  0  0  0
   14.1259    2.5940    5.5847 H   0  0  0  0  0  0  0  0  0  0  0  0
   13.9374    4.7653    4.1742 H   0  0  0  0  0  0  0  0  0  0  0  0
  1  3  2  0
  1  4  1  0
  1  5  1  0
  2  4  1  0
  2  6  1  0
  4  9  1  0
  4 15  1  0
  5  6  1  0
  5  8  1  0
  6  7  2  3
  9 10  2  0
  9 14  1  0
 10 11  1  0
 11 12  2  0
 12 13  1  0
 13 14  2  0
 15 16  2  0
 15 20  1  0
 16 17  1  0
 17 18  2  0
 18 19  1  0
 19 20  2  0
  2 21  1  0
  7 22  1  0
  8 23  1  0
  8 24  1  0
  8 25  1  0
 10 26  1  0
 11 27  1  0
 12 28  1  0
 13 29  1  0
 14 30  1  0
 16 31  1  0
 17 32  1  0
 19 33  1  0
 20 34  1  0
 35 36  1  0
 36 37  2  0
 37 38  1  0
 38 39  2  0
 39 40  1  0
 40 36  1  0
 35 41  1  0
 35 42  1  0
 37 43  1  0
 38 44  1  0
 39 45  1  0
 18 35  1  0
M  END
>  <attachment_point>  (236) 
32

>  <score>  (236) 
<NA>

$$$$
4djw
     RDKit          3D

 57 60  0  0  0  0  0  0  0  0999 V2000
   22.4950   11.8750   22.5810 C   0  0  0  0  0  0  0  0  0  0  0  0
   22.5380    9.4930   22.4640 N   0  0  0  0  0  0  0  0  0  0  0  0
   22.3600   13.0630   22.3480 O   0  0  0  0  0  0  0  0  0  0  0  0
   22.3390   10.6680   21.5610 C   0  0  0  0  0  0  0  0  0  0  0  0
   22.7860   11.3350   23.8120 N   0  0  0  0  0  0  0  0  0  0  0  0
   22.7800    9.9140   23.7010 C   0  0  0  0  0  0  0  0  0  0  0  0
   22.9970    9.1110   24.7490 N   0  0  0  0  0  0  0  0  0  0  0  0
   23.0220   12.1410   25.0180 C   0  0  0  0  0  0  0  0  0  0  0  0
   20.9020   10.6270   21.0050 C   0  0  0  0  0  0  0  0  0  0  0  0
   20.2720    9.4140   20.7470 C   0  0  0  0  0  0  0  0  0  0  0  0
   18.9690    9.3760   20.2600 C   0  0  0  0  0  0  0  0  0  0  0  0
   18.2800   10.5440   20.0210 C   0  0  0  0  0  0  0  0  0  0  0  0
   18.8920   11.7530   20.2590 C   0  0  0  0  0  0  0  0  0  0  0  0
   20.1950   11.7970   20.7440 C   0  0  0  0  0  0  0  0  0  0  0  0
   23.4880   10.6920   20.5300 C   0  0  0  0  0  0  0  0  0  0  0  0
   23.2110   10.7890   19.1730 C   0  0  0  0  0  0  0  0  0  0  0  0
   24.2350   10.8650   18.2430 C   0  0  0  0  0  0  0  0  0  0  0  0
   25.5500   10.8410   18.6560 C   0  0  0  0  0  0  0  0  0  0  0  0
   25.8710   10.7460   20.0070 C   0  0  0  0  0  0  0  0  0  0  0  0
   24.8260   10.6610   20.9430 C   0  0  0  0  0  0  0  0  0  0  0  0
    0.0000    0.0000    0.0000 H   0  0  0  0  0  0  0  0  0  0  0  0
    0.0000    0.0000    0.0000 H   0  0  0  0  0  0  0  0  0  0  0  0
    0.0000    0.0000    0.0000 H   0  0  0  0  0  0  0  0  0  0  0  0
    0.0000    0.0000    0.0000 H   0  0  0  0  0  0  0  0  0  0  0  0
    0.0000    0.0000    0.0000 H   0  0  0  0  0  0  0  0  0  0  0  0
    0.0000    0.0000    0.0000 H   0  0  0  0  0  0  0  0  0  0  0  0
    0.0000    0.0000    0.0000 H   0  0  0  0  0  0  0  0  0  0  0  0
    0.0000    0.0000    0.0000 H   0  0  0  0  0  0  0  0  0  0  0  0
    0.0000    0.0000    0.0000 H   0  0  0  0  0  0  0  0  0  0  0  0
    0.0000    0.0000    0.0000 H   0  0  0  0  0  0  0  0  0  0  0  0
    0.0000    0.0000    0.0000 H   0  0  0  0  0  0  0  0  0  0  0  0
    0.0000    0.0000    0.0000 H   0  0  0  0  0  0  0  0  0  0  0  0
    0.0000    0.0000    0.0000 H   0  0  0  0  0  0  0  0  0  0  0  0
    0.0000    0.0000    0.0000 H   0  0  0  0  0  0  0  0  0  0  0  0
   12.4423    5.2793    9.0851 C   0  0  0  0  0  0  0  0  0  0  0  0
   12.6186    4.3854    8.0557 C   0  0  0  0  0  0  0  0  0  0  0  0
   11.5132    3.9951    7.3426 C   0  0  0  0  0  0  0  0  0  0  0  0
   10.2539    4.5002    7.6656 C   0  0  0  0  0  0  0  0  0  0  0  0
    9.1292    4.0110    6.8297 C   0  0  0  0  0  0  0  0  0  0  0  0
    7.8143    4.6034    7.2445 C   0  0  0  0  0  0  0  0  0  0  0  0
    9.0473    2.5066    7.0496 C   0  0  0  0  0  0  0  0  0  0  0  0
    9.4236    4.3254    5.3984 C   0  0  0  0  0  0  0  0  0  0  0  0
   10.1147    5.3896    8.6977 C   0  0  0  0  0  0  0  0  0  0  0  0
   11.2112    5.7990    9.4318 C   0  0  0  0  0  0  0  0  0  0  0  0
   13.6070    4.0199    7.8392 H   0  0  0  0  0  0  0  0  0  0  0  0
   11.6368    3.2800    6.5152 H   0  0  0  0  0  0  0  0  0  0  0  0
    7.5921    4.4826    8.3045 H   0  0  0  0  0  0  0  0  0  0  0  0
    7.0187    4.0227    6.6921 H   0  0  0  0  0  0  0  0  0  0  0  0
    7.6895    5.6617    6.8839 H   0  0  0  0  0  0  0  0  0  0  0  0
   10.0597    2.1327    7.2716 H   0  0  0  0  0  0  0  0  0  0  0  0
    8.3205    2.3150    7.8478 H   0  0  0  0  0  0  0  0  0  0  0  0
    8.7048    2.0718    6.0956 H   0  0  0  0  0  0  0  0  0  0  0  0
    9.2000    3.3927    4.8028 H   0  0  0  0  0  0  0  0  0  0  0  0
   10.4829    4.6004    5.2163 H   0  0  0  0  0  0  0  0  0  0  0  0
    8.7202    5.0971    4.9949 H   0  0  0  0  0  0  0  0  0  0  0  0
    9.1133    5.7540    8.9100 H   0  0  0  0  0  0  0  0  0  0  0  0
   11.0957    6.5012   10.2454 H   0  0  0  0  0  0  0  0  0  0  0  0
  1  3  2  0
  1  4  1  0
  1  5  1  0
  2  4  1  0
  2  6  1  0
  4  9  1  0
  4 15  1  0
  5  6  1  0
  5  8  1  0
  6  7  2  3
  9 10  2  0
  9 14  1  0
 10 11  1  0
 11 12  2  0
 12 13  1  0
 13 14  2  0
 15 16  2  0
 15 20  1  0
 16 17  1  0
 17 18  2  0
 18 19  1  0
 19 20  2  0
  2 21  1  0
  7 22  1  0
  8 23  1  0
  8 24  1  0
  8 25  1  0
 10 26  1  0
 11 27  1  0
 12 28  1  0
 13 29  1  0
 14 30  1  0
 16 31  1  0
 17 32  1  0
 19 33  1  0
 20 34  1  0
 35 36  2  0
 36 37  1  0
 37 38  2  0
 38 39  1  0
 39 40  1  0
 39 41  1  0
 39 42  1  0
 38 43  1  0
 43 44  2  0
 44 35  1  0
 36 45  1  0
 37 46  1  0
 40 47  1  0
 40 48  1  0
 40 49  1  0
 41 50  1  0
 41 51  1  0
 41 52  1  0
 42 53  1  0
 42 54  1  0
 42 55  1  0
 43 56  1  0
 44 57  1  0
 18 35  1  0
M  END
>  <attachment_point>  (237) 
32

>  <score>  (237) 
<NA>

$$$$
4djw
     RDKit          3D

 45 48  0  0  0  0  0  0  0  0999 V2000
   22.4950   11.8750   22.5810 C   0  0  0  0  0  0  0  0  0  0  0  0
   22.5380    9.4930   22.4640 N   0  0  0  0  0  0  0  0  0  0  0  0
   22.3600   13.0630   22.3480 O   0  0  0  0  0  0  0  0  0  0  0  0
   22.3390   10.6680   21.5610 C   0  0  0  0  0  0  0  0  0  0  0  0
   22.7860   11.3350   23.8120 N   0  0  0  0  0  0  0  0  0  0  0  0
   22.7800    9.9140   23.7010 C   0  0  0  0  0  0  0  0  0  0  0  0
   22.9970    9.1110   24.7490 N   0  0  0  0  0  0  0  0  0  0  0  0
   23.0220   12.1410   25.0180 C   0  0  0  0  0  0  0  0  0  0  0  0
   20.9020   10.6270   21.0050 C   0  0  0  0  0  0  0  0  0  0  0  0
   20.2720    9.4140   20.7470 C   0  0  0  0  0  0  0  0  0  0  0  0
   18.9690    9.3760   20.2600 C   0  0  0  0  0  0  0  0  0  0  0  0
   18.2800   10.5440   20.0210 C   0  0  0  0  0  0  0  0  0  0  0  0
   18.8920   11.7530   20.2590 C   0  0  0  0  0  0  0  0  0  0  0  0
   20.1950   11.7970   20.7440 C   0  0  0  0  0  0  0  0  0  0  0  0
   23.4880   10.6920   20.5300 C   0  0  0  0  0  0  0  0  0  0  0  0
   23.2110   10.7890   19.1730 C   0  0  0  0  0  0  0  0  0  0  0  0
   24.2350   10.8650   18.2430 C   0  0  0  0  0  0  0  0  0  0  0  0
   25.5500   10.8410   18.6560 C   0  0  0  0  0  0  0  0  0  0  0  0
   25.8710   10.7460   20.0070 C   0  0  0  0  0  0  0  0  0  0  0  0
   24.8260   10.6610   20.9430 C   0  0  0  0  0  0  0  0  0  0  0  0
    0.0000    0.0000    0.0000 H   0  0  0  0  0  0  0  0  0  0  0  0
    0.0000    0.0000    0.0000 H   0  0  0  0  0  0  0  0  0  0  0  0
    0.0000    0.0000    0.0000 H   0  0  0  0  0  0  0  0  0  0  0  0
    0.0000    0.0000    0.0000 H   0  0  0  0  0  0  0  0  0  0  0  0
    0.0000    0.0000    0.0000 H   0  0  0  0  0  0  0  0  0  0  0  0
    0.0000    0.0000    0.0000 H   0  0  0  0  0  0  0  0  0  0  0  0
    0.0000    0.0000    0.0000 H   0  0  0  0  0  0  0  0  0  0  0  0
    0.0000    0.0000    0.0000 H   0  0  0  0  0  0  0  0  0  0  0  0
    0.0000    0.0000    0.0000 H   0  0  0  0  0  0  0  0  0  0  0  0
    0.0000    0.0000    0.0000 H   0  0  0  0  0  0  0  0  0  0  0  0
    0.0000    0.0000    0.0000 H   0  0  0  0  0  0  0  0  0  0  0  0
    0.0000    0.0000    0.0000 H   0  0  0  0  0  0  0  0  0  0  0  0
    0.0000    0.0000    0.0000 H   0  0  0  0  0  0  0  0  0  0  0  0
    0.0000    0.0000    0.0000 H   0  0  0  0  0  0  0  0  0  0  0  0
   12.4208    5.2702    9.0693 C   0  0  0  0  0  0  0  0  0  0  0  0
   12.6156    4.3235    8.1089 C   0  0  0  0  0  0  0  0  0  0  0  0
   11.5620    3.8617    7.3237 C   0  0  0  0  0  0  0  0  0  0  0  0
   10.2970    4.3742    7.5237 C   0  0  0  0  0  0  0  0  0  0  0  0
   10.0897    5.3339    8.4948 C   0  0  0  0  0  0  0  0  0  0  0  0
    8.3754    6.0898    8.8316 Br  0  0  0  0  0  0  0  0  0  0  0  0
   11.1647    5.7722    9.2605 C   0  0  0  0  0  0  0  0  0  0  0  0
   13.5883    3.9001    7.9237 H   0  0  0  0  0  0  0  0  0  0  0  0
   11.6946    3.1153    6.5608 H   0  0  0  0  0  0  0  0  0  0  0  0
    9.4700    4.0151    6.9111 H   0  0  0  0  0  0  0  0  0  0  0  0
   11.0452    6.5256   10.0348 H   0  0  0  0  0  0  0  0  0  0  0  0
  1  3  2  0
  1  4  1  0
  1  5  1  0
  2  4  1  0
  2  6  1  0
  4  9  1  0
  4 15  1  0
  5  6  1  0
  5  8  1  0
  6  7  2  3
  9 10  2  0
  9 14  1  0
 10 11  1  0
 11 12  2  0
 12 13  1  0
 13 14  2  0
 15 16  2  0
 15 20  1  0
 16 17  1  0
 17 18  2  0
 18 19  1  0
 19 20  2  0
  2 21  1  0
  7 22  1  0
  8 23  1  0
  8 24  1  0
  8 25  1  0
 10 26  1  0
 11 27  1  0
 12 28  1  0
 13 29  1  0
 14 30  1  0
 16 31  1  0
 17 32  1  0
 19 33  1  0
 20 34  1  0
 35 36  2  0
 36 37  1  0
 37 38  2  0
 38 39  1  0
 39 40  1  0
 39 41  2  0
 41 35  1  0
 36 42  1  0
 37 43  1  0
 38 44  1  0
 41 45  1  0
 18 35  1  0
M  END
>  <attachment_point>  (238) 
32

>  <score>  (238) 
<NA>

$$$$
4djw
     RDKit          3D

 55 58  0  0  0  0  0  0  0  0999 V2000
   22.4950   11.8750   22.5810 C   0  0  0  0  0  0  0  0  0  0  0  0
   22.5380    9.4930   22.4640 N   0  0  0  0  0  0  0  0  0  0  0  0
   22.3600   13.0630   22.3480 O   0  0  0  0  0  0  0  0  0  0  0  0
   22.3390   10.6680   21.5610 C   0  0  0  0  0  0  0  0  0  0  0  0
   22.7860   11.3350   23.8120 N   0  0  0  0  0  0  0  0  0  0  0  0
   22.7800    9.9140   23.7010 C   0  0  0  0  0  0  0  0  0  0  0  0
   22.9970    9.1110   24.7490 N   0  0  0  0  0  0  0  0  0  0  0  0
   23.0220   12.1410   25.0180 C   0  0  0  0  0  0  0  0  0  0  0  0
   20.9020   10.6270   21.0050 C   0  0  0  0  0  0  0  0  0  0  0  0
   20.2720    9.4140   20.7470 C   0  0  0  0  0  0  0  0  0  0  0  0
   18.9690    9.3760   20.2600 C   0  0  0  0  0  0  0  0  0  0  0  0
   18.2800   10.5440   20.0210 C   0  0  0  0  0  0  0  0  0  0  0  0
   18.8920   11.7530   20.2590 C   0  0  0  0  0  0  0  0  0  0  0  0
   20.1950   11.7970   20.7440 C   0  0  0  0  0  0  0  0  0  0  0  0
   23.4880   10.6920   20.5300 C   0  0  0  0  0  0  0  0  0  0  0  0
   23.2110   10.7890   19.1730 C   0  0  0  0  0  0  0  0  0  0  0  0
   24.2350   10.8650   18.2430 C   0  0  0  0  0  0  0  0  0  0  0  0
   25.5500   10.8410   18.6560 C   0  0  0  0  0  0  0  0  0  0  0  0
   25.8710   10.7460   20.0070 C   0  0  0  0  0  0  0  0  0  0  0  0
   24.8260   10.6610   20.9430 C   0  0  0  0  0  0  0  0  0  0  0  0
    0.0000    0.0000    0.0000 H   0  0  0  0  0  0  0  0  0  0  0  0
    0.0000    0.0000    0.0000 H   0  0  0  0  0  0  0  0  0  0  0  0
    0.0000    0.0000    0.0000 H   0  0  0  0  0  0  0  0  0  0  0  0
    0.0000    0.0000    0.0000 H   0  0  0  0  0  0  0  0  0  0  0  0
    0.0000    0.0000    0.0000 H   0  0  0  0  0  0  0  0  0  0  0  0
    0.0000    0.0000    0.0000 H   0  0  0  0  0  0  0  0  0  0  0  0
    0.0000    0.0000    0.0000 H   0  0  0  0  0  0  0  0  0  0  0  0
    0.0000    0.0000    0.0000 H   0  0  0  0  0  0  0  0  0  0  0  0
    0.0000    0.0000    0.0000 H   0  0  0  0  0  0  0  0  0  0  0  0
    0.0000    0.0000    0.0000 H   0  0  0  0  0  0  0  0  0  0  0  0
    0.0000    0.0000    0.0000 H   0  0  0  0  0  0  0  0  0  0  0  0
    0.0000    0.0000    0.0000 H   0  0  0  0  0  0  0  0  0  0  0  0
    0.0000    0.0000    0.0000 H   0  0  0  0  0  0  0  0  0  0  0  0
    0.0000    0.0000    0.0000 H   0  0  0  0  0  0  0  0  0  0  0  0
   12.4100    5.2656    9.0615 N   0  0  0  0  0  0  0  0  0  0  0  0
   12.7527    4.5517    7.9059 C   0  0  0  0  0  0  0  0  0  0  0  0
   13.9984    4.3833    7.6756 O   0  0  0  0  0  0  0  0  0  0  0  0
   11.7139    4.0120    6.9858 C   0  0  0  0  0  0  0  0  0  0  0  0
   10.7947    3.0398    7.6670 C   0  0  0  0  0  0  0  0  0  0  0  0
    9.8337    2.4994    6.6481 C   0  0  0  0  0  0  0  0  0  0  0  0
    9.9337    3.1635    5.3107 C   0  0  0  0  0  0  0  0  0  0  0  0
    9.9154    4.6628    5.4036 C   0  0  0  0  0  0  0  0  0  0  0  0
   10.9781    5.1529    6.3362 C   0  0  0  0  0  0  0  0  0  0  0  0
   11.4909    5.4848    9.3869 H   0  0  0  0  0  0  0  0  0  0  0  0
   12.2429    3.4603    6.1816 H   0  0  0  0  0  0  0  0  0  0  0  0
   10.3159    3.4337    8.5738 H   0  0  0  0  0  0  0  0  0  0  0  0
   11.4316    2.1786    8.0019 H   0  0  0  0  0  0  0  0  0  0  0  0
    9.9672    1.3971    6.4744 H   0  0  0  0  0  0  0  0  0  0  0  0
    8.7800    2.5895    7.0412 H   0  0  0  0  0  0  0  0  0  0  0  0
   10.8498    2.8449    4.7810 H   0  0  0  0  0  0  0  0  0  0  0  0
    9.0514    2.8578    4.7104 H   0  0  0  0  0  0  0  0  0  0  0  0
   10.0267    5.0561    4.3604 H   0  0  0  0  0  0  0  0  0  0  0  0
    8.8890    4.9761    5.7265 H   0  0  0  0  0  0  0  0  0  0  0  0
   10.5392    5.8530    7.0759 H   0  0  0  0  0  0  0  0  0  0  0  0
   11.7123    5.7351    5.7382 H   0  0  0  0  0  0  0  0  0  0  0  0
  1  3  2  0
  1  4  1  0
  1  5  1  0
  2  4  1  0
  2  6  1  0
  4  9  1  0
  4 15  1  0
  5  6  1  0
  5  8  1  0
  6  7  2  3
  9 10  2  0
  9 14  1  0
 10 11  1  0
 11 12  2  0
 12 13  1  0
 13 14  2  0
 15 16  2  0
 15 20  1  0
 16 17  1  0
 17 18  2  0
 18 19  1  0
 19 20  2  0
  2 21  1  0
  7 22  1  0
  8 23  1  0
  8 24  1  0
  8 25  1  0
 10 26  1  0
 11 27  1  0
 12 28  1  0
 13 29  1  0
 14 30  1  0
 16 31  1  0
 17 32  1  0
 19 33  1  0
 20 34  1  0
 35 36  1  0
 36 37  2  0
 36 38  1  0
 38 39  1  0
 39 40  1  0
 40 41  1  0
 41 42  1  0
 42 43  1  0
 43 38  1  0
 35 44  1  0
 38 45  1  0
 39 46  1  0
 39 47  1  0
 40 48  1  0
 40 49  1  0
 41 50  1  0
 41 51  1  0
 42 52  1  0
 42 53  1  0
 43 54  1  0
 43 55  1  0
 18 35  1  0
M  END
>  <attachment_point>  (239) 
32

>  <score>  (239) 
<NA>

$$$$
4djw
     RDKit          3D

 46 49  0  0  0  0  0  0  0  0999 V2000
   22.4950   11.8750   22.5810 C   0  0  0  0  0  0  0  0  0  0  0  0
   22.5380    9.4930   22.4640 N   0  0  0  0  0  0  0  0  0  0  0  0
   22.3600   13.0630   22.3480 O   0  0  0  0  0  0  0  0  0  0  0  0
   22.3390   10.6680   21.5610 C   0  0  0  0  0  0  0  0  0  0  0  0
   22.7860   11.3350   23.8120 N   0  0  0  0  0  0  0  0  0  0  0  0
   22.7800    9.9140   23.7010 C   0  0  0  0  0  0  0  0  0  0  0  0
   22.9970    9.1110   24.7490 N   0  0  0  0  0  0  0  0  0  0  0  0
   23.0220   12.1410   25.0180 C   0  0  0  0  0  0  0  0  0  0  0  0
   20.9020   10.6270   21.0050 C   0  0  0  0  0  0  0  0  0  0  0  0
   20.2720    9.4140   20.7470 C   0  0  0  0  0  0  0  0  0  0  0  0
   18.9690    9.3760   20.2600 C   0  0  0  0  0  0  0  0  0  0  0  0
   18.2800   10.5440   20.0210 C   0  0  0  0  0  0  0  0  0  0  0  0
   18.8920   11.7530   20.2590 C   0  0  0  0  0  0  0  0  0  0  0  0
   20.1950   11.7970   20.7440 C   0  0  0  0  0  0  0  0  0  0  0  0
   23.4880   10.6920   20.5300 C   0  0  0  0  0  0  0  0  0  0  0  0
   23.2110   10.7890   19.1730 C   0  0  0  0  0  0  0  0  0  0  0  0
   24.2350   10.8650   18.2430 C   0  0  0  0  0  0  0  0  0  0  0  0
   25.5500   10.8410   18.6560 C   0  0  0  0  0  0  0  0  0  0  0  0
   25.8710   10.7460   20.0070 C   0  0  0  0  0  0  0  0  0  0  0  0
   24.8260   10.6610   20.9430 C   0  0  0  0  0  0  0  0  0  0  0  0
    0.0000    0.0000    0.0000 H   0  0  0  0  0  0  0  0  0  0  0  0
    0.0000    0.0000    0.0000 H   0  0  0  0  0  0  0  0  0  0  0  0
    0.0000    0.0000    0.0000 H   0  0  0  0  0  0  0  0  0  0  0  0
    0.0000    0.0000    0.0000 H   0  0  0  0  0  0  0  0  0  0  0  0
    0.0000    0.0000    0.0000 H   0  0  0  0  0  0  0  0  0  0  0  0
    0.0000    0.0000    0.0000 H   0  0  0  0  0  0  0  0  0  0  0  0
    0.0000    0.0000    0.0000 H   0  0  0  0  0  0  0  0  0  0  0  0
    0.0000    0.0000    0.0000 H   0  0  0  0  0  0  0  0  0  0  0  0
    0.0000    0.0000    0.0000 H   0  0  0  0  0  0  0  0  0  0  0  0
    0.0000    0.0000    0.0000 H   0  0  0  0  0  0  0  0  0  0  0  0
    0.0000    0.0000    0.0000 H   0  0  0  0  0  0  0  0  0  0  0  0
    0.0000    0.0000    0.0000 H   0  0  0  0  0  0  0  0  0  0  0  0
    0.0000    0.0000    0.0000 H   0  0  0  0  0  0  0  0  0  0  0  0
    0.0000    0.0000    0.0000 H   0  0  0  0  0  0  0  0  0  0  0  0
   12.4273    5.2730    9.0741 O   0  0  0  0  0  0  0  0  0  0  0  0
   11.9552    4.0304    9.5138 C   0  0  0  0  0  0  0  0  0  0  0  0
   10.9370    3.9313   10.4389 C   0  0  0  0  0  0  0  0  0  0  0  0
   10.4813    2.7005   10.8635 C   0  0  0  0  0  0  0  0  0  0  0  0
   11.0127    1.5123   10.3921 C   0  0  0  0  0  0  0  0  0  0  0  0
   10.5564    0.3082   10.8171 F   0  0  0  0  0  0  0  0  0  0  0  0
   12.0309    1.6289    9.4669 C   0  0  0  0  0  0  0  0  0  0  0  0
   12.4946    2.8552    9.0350 C   0  0  0  0  0  0  0  0  0  0  0  0
   10.5175    4.8669   10.8110 H   0  0  0  0  0  0  0  0  0  0  0  0
    9.6807    2.6299   11.5907 H   0  0  0  0  0  0  0  0  0  0  0  0
   12.4686    0.7073    9.0781 H   0  0  0  0  0  0  0  0  0  0  0  0
   13.2902    2.9442    8.3122 H   0  0  0  0  0  0  0  0  0  0  0  0
  1  3  2  0
  1  4  1  0
  1  5  1  0
  2  4  1  0
  2  6  1  0
  4  9  1  0
  4 15  1  0
  5  6  1  0
  5  8  1  0
  6  7  2  3
  9 10  2  0
  9 14  1  0
 10 11  1  0
 11 12  2  0
 12 13  1  0
 13 14  2  0
 15 16  2  0
 15 20  1  0
 16 17  1  0
 17 18  2  0
 18 19  1  0
 19 20  2  0
  2 21  1  0
  7 22  1  0
  8 23  1  0
  8 24  1  0
  8 25  1  0
 10 26  1  0
 11 27  1  0
 12 28  1  0
 13 29  1  0
 14 30  1  0
 16 31  1  0
 17 32  1  0
 19 33  1  0
 20 34  1  0
 35 36  1  0
 36 37  2  0
 37 38  1  0
 38 39  2  0
 39 40  1  0
 39 41  1  0
 41 42  2  0
 42 36  1  0
 37 43  1  0
 38 44  1  0
 41 45  1  0
 42 46  1  0
 18 35  1  0
M  END
>  <attachment_point>  (240) 
32

>  <score>  (240) 
<NA>

$$$$
4djw
     RDKit          3D

 46 49  0  0  0  0  0  0  0  0999 V2000
   22.4950   11.8750   22.5810 C   0  0  0  0  0  0  0  0  0  0  0  0
   22.5380    9.4930   22.4640 N   0  0  0  0  0  0  0  0  0  0  0  0
   22.3600   13.0630   22.3480 O   0  0  0  0  0  0  0  0  0  0  0  0
   22.3390   10.6680   21.5610 C   0  0  0  0  0  0  0  0  0  0  0  0
   22.7860   11.3350   23.8120 N   0  0  0  0  0  0  0  0  0  0  0  0
   22.7800    9.9140   23.7010 C   0  0  0  0  0  0  0  0  0  0  0  0
   22.9970    9.1110   24.7490 N   0  0  0  0  0  0  0  0  0  0  0  0
   23.0220   12.1410   25.0180 C   0  0  0  0  0  0  0  0  0  0  0  0
   20.9020   10.6270   21.0050 C   0  0  0  0  0  0  0  0  0  0  0  0
   20.2720    9.4140   20.7470 C   0  0  0  0  0  0  0  0  0  0  0  0
   18.9690    9.3760   20.2600 C   0  0  0  0  0  0  0  0  0  0  0  0
   18.2800   10.5440   20.0210 C   0  0  0  0  0  0  0  0  0  0  0  0
   18.8920   11.7530   20.2590 C   0  0  0  0  0  0  0  0  0  0  0  0
   20.1950   11.7970   20.7440 C   0  0  0  0  0  0  0  0  0  0  0  0
   23.4880   10.6920   20.5300 C   0  0  0  0  0  0  0  0  0  0  0  0
   23.2110   10.7890   19.1730 C   0  0  0  0  0  0  0  0  0  0  0  0
   24.2350   10.8650   18.2430 C   0  0  0  0  0  0  0  0  0  0  0  0
   25.5500   10.8410   18.6560 C   0  0  0  0  0  0  0  0  0  0  0  0
   25.8710   10.7460   20.0070 C   0  0  0  0  0  0  0  0  0  0  0  0
   24.8260   10.6610   20.9430 C   0  0  0  0  0  0  0  0  0  0  0  0
    0.0000    0.0000    0.0000 H   0  0  0  0  0  0  0  0  0  0  0  0
    0.0000    0.0000    0.0000 H   0  0  0  0  0  0  0  0  0  0  0  0
    0.0000    0.0000    0.0000 H   0  0  0  0  0  0  0  0  0  0  0  0
    0.0000    0.0000    0.0000 H   0  0  0  0  0  0  0  0  0  0  0  0
    0.0000    0.0000    0.0000 H   0  0  0  0  0  0  0  0  0  0  0  0
    0.0000    0.0000    0.0000 H   0  0  0  0  0  0  0  0  0  0  0  0
    0.0000    0.0000    0.0000 H   0  0  0  0  0  0  0  0  0  0  0  0
    0.0000    0.0000    0.0000 H   0  0  0  0  0  0  0  0  0  0  0  0
    0.0000    0.0000    0.0000 H   0  0  0  0  0  0  0  0  0  0  0  0
    0.0000    0.0000    0.0000 H   0  0  0  0  0  0  0  0  0  0  0  0
    0.0000    0.0000    0.0000 H   0  0  0  0  0  0  0  0  0  0  0  0
    0.0000    0.0000    0.0000 H   0  0  0  0  0  0  0  0  0  0  0  0
    0.0000    0.0000    0.0000 H   0  0  0  0  0  0  0  0  0  0  0  0
    0.0000    0.0000    0.0000 H   0  0  0  0  0  0  0  0  0  0  0  0
   12.3376    5.2349    9.0086 C   0  0  0  0  0  0  0  0  0  0  0  0
   11.4522    4.8705    8.3856 C   0  0  0  0  0  0  0  0  0  0  0  0
   10.3381    4.4294    7.6284 C   0  0  0  0  0  0  0  0  0  0  0  0
   10.4697    4.1529    6.2844 C   0  0  0  0  0  0  0  0  0  0  0  0
    9.3973    3.7251    5.5392 C   0  0  0  0  0  0  0  0  0  0  0  0
    8.1802    3.5742    6.1538 C   0  0  0  0  0  0  0  0  0  0  0  0
    8.0581    3.8489    7.4803 C   0  0  0  0  0  0  0  0  0  0  0  0
    9.1148    4.2631    8.1825 N   0  0  0  0  0  0  0  0  0  0  0  0
   11.4613    4.2899    5.8471 H   0  0  0  0  0  0  0  0  0  0  0  0
    9.5066    3.5072    4.4743 H   0  0  0  0  0  0  0  0  0  0  0  0
    7.3650    3.2348    5.5255 H   0  0  0  0  0  0  0  0  0  0  0  0
    7.0855    3.7202    7.9359 H   0  0  0  0  0  0  0  0  0  0  0  0
  1  3  2  0
  1  4  1  0
  1  5  1  0
  2  4  1  0
  2  6  1  0
  4  9  1  0
  4 15  1  0
  5  6  1  0
  5  8  1  0
  6  7  2  3
  9 10  2  0
  9 14  1  0
 10 11  1  0
 11 12  2  0
 12 13  1  0
 13 14  2  0
 15 16  2  0
 15 20  1  0
 16 17  1  0
 17 18  2  0
 18 19  1  0
 19 20  2  0
  2 21  1  0
  7 22  1  0
  8 23  1  0
  8 24  1  0
  8 25  1  0
 10 26  1  0
 11 27  1  0
 12 28  1  0
 13 29  1  0
 14 30  1  0
 16 31  1  0
 17 32  1  0
 19 33  1  0
 20 34  1  0
 35 36  3  0
 36 37  1  0
 37 38  2  0
 38 39  1  0
 39 40  2  0
 40 41  1  0
 41 42  2  0
 42 37  1  0
 38 43  1  0
 39 44  1  0
 40 45  1  0
 41 46  1  0
 18 35  1  0
M  END
>  <attachment_point>  (241) 
32

>  <score>  (241) 
<NA>

$$$$
4djw
     RDKit          3D

 52 55  0  0  0  0  0  0  0  0999 V2000
   22.4950   11.8750   22.5810 C   0  0  0  0  0  0  0  0  0  0  0  0
   22.5380    9.4930   22.4640 N   0  0  0  0  0  0  0  0  0  0  0  0
   22.3600   13.0630   22.3480 O   0  0  0  0  0  0  0  0  0  0  0  0
   22.3390   10.6680   21.5610 C   0  0  0  0  0  0  0  0  0  0  0  0
   22.7860   11.3350   23.8120 N   0  0  0  0  0  0  0  0  0  0  0  0
   22.7800    9.9140   23.7010 C   0  0  0  0  0  0  0  0  0  0  0  0
   22.9970    9.1110   24.7490 N   0  0  0  0  0  0  0  0  0  0  0  0
   23.0220   12.1410   25.0180 C   0  0  0  0  0  0  0  0  0  0  0  0
   20.9020   10.6270   21.0050 C   0  0  0  0  0  0  0  0  0  0  0  0
   20.2720    9.4140   20.7470 C   0  0  0  0  0  0  0  0  0  0  0  0
   18.9690    9.3760   20.2600 C   0  0  0  0  0  0  0  0  0  0  0  0
   18.2800   10.5440   20.0210 C   0  0  0  0  0  0  0  0  0  0  0  0
   18.8920   11.7530   20.2590 C   0  0  0  0  0  0  0  0  0  0  0  0
   20.1950   11.7970   20.7440 C   0  0  0  0  0  0  0  0  0  0  0  0
   23.4880   10.6920   20.5300 C   0  0  0  0  0  0  0  0  0  0  0  0
   23.2110   10.7890   19.1730 C   0  0  0  0  0  0  0  0  0  0  0  0
   24.2350   10.8650   18.2430 C   0  0  0  0  0  0  0  0  0  0  0  0
   25.5500   10.8410   18.6560 C   0  0  0  0  0  0  0  0  0  0  0  0
   25.8710   10.7460   20.0070 C   0  0  0  0  0  0  0  0  0  0  0  0
   24.8260   10.6610   20.9430 C   0  0  0  0  0  0  0  0  0  0  0  0
    0.0000    0.0000    0.0000 H   0  0  0  0  0  0  0  0  0  0  0  0
    0.0000    0.0000    0.0000 H   0  0  0  0  0  0  0  0  0  0  0  0
    0.0000    0.0000    0.0000 H   0  0  0  0  0  0  0  0  0  0  0  0
    0.0000    0.0000    0.0000 H   0  0  0  0  0  0  0  0  0  0  0  0
    0.0000    0.0000    0.0000 H   0  0  0  0  0  0  0  0  0  0  0  0
    0.0000    0.0000    0.0000 H   0  0  0  0  0  0  0  0  0  0  0  0
    0.0000    0.0000    0.0000 H   0  0  0  0  0  0  0  0  0  0  0  0
    0.0000    0.0000    0.0000 H   0  0  0  0  0  0  0  0  0  0  0  0
    0.0000    0.0000    0.0000 H   0  0  0  0  0  0  0  0  0  0  0  0
    0.0000    0.0000    0.0000 H   0  0  0  0  0  0  0  0  0  0  0  0
    0.0000    0.0000    0.0000 H   0  0  0  0  0  0  0  0  0  0  0  0
    0.0000    0.0000    0.0000 H   0  0  0  0  0  0  0  0  0  0  0  0
    0.0000    0.0000    0.0000 H   0  0  0  0  0  0  0  0  0  0  0  0
    0.0000    0.0000    0.0000 H   0  0  0  0  0  0  0  0  0  0  0  0
   12.3302    5.2318    9.0032 C   0  0  0  0  0  0  0  0  0  0  0  0
   13.0204    5.1034    7.7873 N   0  0  0  0  0  0  0  0  0  0  0  0
   14.1258    4.1979    7.7879 C   0  0  0  0  0  0  0  0  0  0  0  0
   15.2172    4.6468    8.7569 C   0  0  0  0  0  0  0  0  0  0  0  0
   15.7048    5.9225    8.2668 N   0  0  0  0  0  0  0  0  0  0  0  0
   14.6213    6.8715    8.3221 C   0  0  0  0  0  0  0  0  0  0  0  0
   13.5187    6.4034    7.3745 C   0  0  0  0  0  0  0  0  0  0  0  0
   11.8141    6.1440    9.2151 H   0  0  0  0  0  0  0  0  0  0  0  0
   12.1499    4.3624    9.5978 H   0  0  0  0  0  0  0  0  0  0  0  0
   13.8706    3.1471    7.9205 H   0  0  0  0  0  0  0  0  0  0  0  0
   14.6017    4.2767    6.7677 H   0  0  0  0  0  0  0  0  0  0  0  0
   14.7878    4.7088    9.7707 H   0  0  0  0  0  0  0  0  0  0  0  0
   16.0310    3.8873    8.7114 H   0  0  0  0  0  0  0  0  0  0  0  0
   15.9439    5.7694    7.2506 H   0  0  0  0  0  0  0  0  0  0  0  0
   14.2289    6.8622    9.3589 H   0  0  0  0  0  0  0  0  0  0  0  0
   14.9158    7.8745    7.9835 H   0  0  0  0  0  0  0  0  0  0  0  0
   12.7218    7.1573    7.2644 H   0  0  0  0  0  0  0  0  0  0  0  0
   14.0085    6.2353    6.3709 H   0  0  0  0  0  0  0  0  0  0  0  0
  1  3  2  0
  1  4  1  0
  1  5  1  0
  2  4  1  0
  2  6  1  0
  4  9  1  0
  4 15  1  0
  5  6  1  0
  5  8  1  0
  6  7  2  3
  9 10  2  0
  9 14  1  0
 10 11  1  0
 11 12  2  0
 12 13  1  0
 13 14  2  0
 15 16  2  0
 15 20  1  0
 16 17  1  0
 17 18  2  0
 18 19  1  0
 19 20  2  0
  2 21  1  0
  7 22  1  0
  8 23  1  0
  8 24  1  0
  8 25  1  0
 10 26  1  0
 11 27  1  0
 12 28  1  0
 13 29  1  0
 14 30  1  0
 16 31  1  0
 17 32  1  0
 19 33  1  0
 20 34  1  0
 35 36  1  0
 36 37  1  0
 37 38  1  0
 38 39  1  0
 39 40  1  0
 40 41  1  0
 41 36  1  0
 35 42  1  0
 35 43  1  0
 37 44  1  0
 37 45  1  0
 38 46  1  0
 38 47  1  0
 39 48  1  0
 40 49  1  0
 40 50  1  0
 41 51  1  0
 41 52  1  0
 18 35  1  0
M  END
>  <attachment_point>  (242) 
32

>  <score>  (242) 
<NA>

$$$$
4djw
     RDKit          3D

 54 57  0  0  0  0  0  0  0  0999 V2000
   22.4950   11.8750   22.5810 C   0  0  0  0  0  0  0  0  0  0  0  0
   22.5380    9.4930   22.4640 N   0  0  0  0  0  0  0  0  0  0  0  0
   22.3600   13.0630   22.3480 O   0  0  0  0  0  0  0  0  0  0  0  0
   22.3390   10.6680   21.5610 C   0  0  0  0  0  0  0  0  0  0  0  0
   22.7860   11.3350   23.8120 N   0  0  0  0  0  0  0  0  0  0  0  0
   22.7800    9.9140   23.7010 C   0  0  0  0  0  0  0  0  0  0  0  0
   22.9970    9.1110   24.7490 N   0  0  0  0  0  0  0  0  0  0  0  0
   23.0220   12.1410   25.0180 C   0  0  0  0  0  0  0  0  0  0  0  0
   20.9020   10.6270   21.0050 C   0  0  0  0  0  0  0  0  0  0  0  0
   20.2720    9.4140   20.7470 C   0  0  0  0  0  0  0  0  0  0  0  0
   18.9690    9.3760   20.2600 C   0  0  0  0  0  0  0  0  0  0  0  0
   18.2800   10.5440   20.0210 C   0  0  0  0  0  0  0  0  0  0  0  0
   18.8920   11.7530   20.2590 C   0  0  0  0  0  0  0  0  0  0  0  0
   20.1950   11.7970   20.7440 C   0  0  0  0  0  0  0  0  0  0  0  0
   23.4880   10.6920   20.5300 C   0  0  0  0  0  0  0  0  0  0  0  0
   23.2110   10.7890   19.1730 C   0  0  0  0  0  0  0  0  0  0  0  0
   24.2350   10.8650   18.2430 C   0  0  0  0  0  0  0  0  0  0  0  0
   25.5500   10.8410   18.6560 C   0  0  0  0  0  0  0  0  0  0  0  0
   25.8710   10.7460   20.0070 C   0  0  0  0  0  0  0  0  0  0  0  0
   24.8260   10.6610   20.9430 C   0  0  0  0  0  0  0  0  0  0  0  0
    0.0000    0.0000    0.0000 H   0  0  0  0  0  0  0  0  0  0  0  0
    0.0000    0.0000    0.0000 H   0  0  0  0  0  0  0  0  0  0  0  0
    0.0000    0.0000    0.0000 H   0  0  0  0  0  0  0  0  0  0  0  0
    0.0000    0.0000    0.0000 H   0  0  0  0  0  0  0  0  0  0  0  0
    0.0000    0.0000    0.0000 H   0  0  0  0  0  0  0  0  0  0  0  0
    0.0000    0.0000    0.0000 H   0  0  0  0  0  0  0  0  0  0  0  0
    0.0000    0.0000    0.0000 H   0  0  0  0  0  0  0  0  0  0  0  0
    0.0000    0.0000    0.0000 H   0  0  0  0  0  0  0  0  0  0  0  0
    0.0000    0.0000    0.0000 H   0  0  0  0  0  0  0  0  0  0  0  0
    0.0000    0.0000    0.0000 H   0  0  0  0  0  0  0  0  0  0  0  0
    0.0000    0.0000    0.0000 H   0  0  0  0  0  0  0  0  0  0  0  0
    0.0000    0.0000    0.0000 H   0  0  0  0  0  0  0  0  0  0  0  0
    0.0000    0.0000    0.0000 H   0  0  0  0  0  0  0  0  0  0  0  0
    0.0000    0.0000    0.0000 H   0  0  0  0  0  0  0  0  0  0  0  0
   12.5143    5.3099    9.1376 N   0  0  0  0  0  0  0  0  0  0  0  0
   12.3471    3.8526    9.0433 C   0  0  0  0  0  0  0  0  0  0  0  0
   12.1335    3.3821   10.4498 C   0  0  0  0  0  0  0  0  0  0  0  0
   10.8641    3.3223   10.9274 C   0  0  0  0  0  0  0  0  0  0  0  0
   10.6231    2.8911   12.2275 C   0  0  0  0  0  0  0  0  0  0  0  0
   11.6722    2.5215   13.0404 C   0  0  0  0  0  0  0  0  0  0  0  0
   11.4733    2.0863   14.3421 O   0  0  0  0  0  0  0  0  0  0  0  0
   10.1760    2.0016   14.8978 C   0  0  0  0  0  0  0  0  0  0  0  0
   12.9582    2.5864   12.5444 C   0  0  0  0  0  0  0  0  0  0  0  0
   13.1906    3.0195   11.2407 C   0  0  0  0  0  0  0  0  0  0  0  0
   12.1571    5.7485    8.2608 H   0  0  0  0  0  0  0  0  0  0  0  0
   11.4817    3.6815    8.4007 H   0  0  0  0  0  0  0  0  0  0  0  0
   13.2719    3.3814    8.6373 H   0  0  0  0  0  0  0  0  0  0  0  0
    9.9993    3.5979   10.3412 H   0  0  0  0  0  0  0  0  0  0  0  0
    9.5983    2.8422   12.6147 H   0  0  0  0  0  0  0  0  0  0  0  0
    9.6183    1.1670   14.3990 H   0  0  0  0  0  0  0  0  0  0  0  0
   10.2633    1.8547   15.9930 H   0  0  0  0  0  0  0  0  0  0  0  0
    9.6352    2.9359   14.6521 H   0  0  0  0  0  0  0  0  0  0  0  0
   13.8165    2.3025   13.1563 H   0  0  0  0  0  0  0  0  0  0  0  0
   14.2002    3.0589   10.8845 H   0  0  0  0  0  0  0  0  0  0  0  0
  1  3  2  0
  1  4  1  0
  1  5  1  0
  2  4  1  0
  2  6  1  0
  4  9  1  0
  4 15  1  0
  5  6  1  0
  5  8  1  0
  6  7  2  3
  9 10  2  0
  9 14  1  0
 10 11  1  0
 11 12  2  0
 12 13  1  0
 13 14  2  0
 15 16  2  0
 15 20  1  0
 16 17  1  0
 17 18  2  0
 18 19  1  0
 19 20  2  0
  2 21  1  0
  7 22  1  0
  8 23  1  0
  8 24  1  0
  8 25  1  0
 10 26  1  0
 11 27  1  0
 12 28  1  0
 13 29  1  0
 14 30  1  0
 16 31  1  0
 17 32  1  0
 19 33  1  0
 20 34  1  0
 35 36  1  0
 36 37  1  0
 37 38  2  0
 38 39  1  0
 39 40  2  0
 40 41  1  0
 41 42  1  0
 40 43  1  0
 43 44  2  0
 44 37  1  0
 35 45  1  0
 36 46  1  0
 36 47  1  0
 38 48  1  0
 39 49  1  0
 42 50  1  0
 42 51  1  0
 42 52  1  0
 43 53  1  0
 44 54  1  0
 18 35  1  0
M  END
>  <attachment_point>  (243) 
32

>  <score>  (243) 
<NA>

$$$$
4djw
     RDKit          3D

 47 50  0  0  0  0  0  0  0  0999 V2000
   22.4950   11.8750   22.5810 C   0  0  0  0  0  0  0  0  0  0  0  0
   22.5380    9.4930   22.4640 N   0  0  0  0  0  0  0  0  0  0  0  0
   22.3600   13.0630   22.3480 O   0  0  0  0  0  0  0  0  0  0  0  0
   22.3390   10.6680   21.5610 C   0  0  0  0  0  0  0  0  0  0  0  0
   22.7860   11.3350   23.8120 N   0  0  0  0  0  0  0  0  0  0  0  0
   22.7800    9.9140   23.7010 C   0  0  0  0  0  0  0  0  0  0  0  0
   22.9970    9.1110   24.7490 N   0  0  0  0  0  0  0  0  0  0  0  0
   23.0220   12.1410   25.0180 C   0  0  0  0  0  0  0  0  0  0  0  0
   20.9020   10.6270   21.0050 C   0  0  0  0  0  0  0  0  0  0  0  0
   20.2720    9.4140   20.7470 C   0  0  0  0  0  0  0  0  0  0  0  0
   18.9690    9.3760   20.2600 C   0  0  0  0  0  0  0  0  0  0  0  0
   18.2800   10.5440   20.0210 C   0  0  0  0  0  0  0  0  0  0  0  0
   18.8920   11.7530   20.2590 C   0  0  0  0  0  0  0  0  0  0  0  0
   20.1950   11.7970   20.7440 C   0  0  0  0  0  0  0  0  0  0  0  0
   23.4880   10.6920   20.5300 C   0  0  0  0  0  0  0  0  0  0  0  0
   23.2110   10.7890   19.1730 C   0  0  0  0  0  0  0  0  0  0  0  0
   24.2350   10.8650   18.2430 C   0  0  0  0  0  0  0  0  0  0  0  0
   25.5500   10.8410   18.6560 C   0  0  0  0  0  0  0  0  0  0  0  0
   25.8710   10.7460   20.0070 C   0  0  0  0  0  0  0  0  0  0  0  0
   24.8260   10.6610   20.9430 C   0  0  0  0  0  0  0  0  0  0  0  0
    0.0000    0.0000    0.0000 H   0  0  0  0  0  0  0  0  0  0  0  0
    0.0000    0.0000    0.0000 H   0  0  0  0  0  0  0  0  0  0  0  0
    0.0000    0.0000    0.0000 H   0  0  0  0  0  0  0  0  0  0  0  0
    0.0000    0.0000    0.0000 H   0  0  0  0  0  0  0  0  0  0  0  0
    0.0000    0.0000    0.0000 H   0  0  0  0  0  0  0  0  0  0  0  0
    0.0000    0.0000    0.0000 H   0  0  0  0  0  0  0  0  0  0  0  0
    0.0000    0.0000    0.0000 H   0  0  0  0  0  0  0  0  0  0  0  0
    0.0000    0.0000    0.0000 H   0  0  0  0  0  0  0  0  0  0  0  0
    0.0000    0.0000    0.0000 H   0  0  0  0  0  0  0  0  0  0  0  0
    0.0000    0.0000    0.0000 H   0  0  0  0  0  0  0  0  0  0  0  0
    0.0000    0.0000    0.0000 H   0  0  0  0  0  0  0  0  0  0  0  0
    0.0000    0.0000    0.0000 H   0  0  0  0  0  0  0  0  0  0  0  0
    0.0000    0.0000    0.0000 H   0  0  0  0  0  0  0  0  0  0  0  0
    0.0000    0.0000    0.0000 H   0  0  0  0  0  0  0  0  0  0  0  0
   12.4429    5.2796    9.0855 C   0  0  0  0  0  0  0  0  0  0  0  0
   11.1629    5.4874    9.4236 N   0  0  0  0  0  0  0  0  0  0  0  0
   10.1390    5.0481    8.6677 C   0  0  0  0  0  0  0  0  0  0  0  0
   10.4714    4.3656    7.5149 C   0  0  0  0  0  0  0  0  0  0  0  0
   11.7812    4.1343    7.1375 C   0  0  0  0  0  0  0  0  0  0  0  0
   12.8176    4.6025    7.9423 C   0  0  0  0  0  0  0  0  0  0  0  0
   14.2414    4.3839    7.5878 C   0  0  0  0  0  0  0  0  0  0  0  0
    9.0966    5.2036    8.9195 H   0  0  0  0  0  0  0  0  0  0  0  0
    9.6702    4.0087    6.9011 H   0  0  0  0  0  0  0  0  0  0  0  0
   12.0447    3.6002    6.2353 H   0  0  0  0  0  0  0  0  0  0  0  0
   14.6679    5.1983    6.9764 H   0  0  0  0  0  0  0  0  0  0  0  0
   14.3740    3.4472    6.9845 H   0  0  0  0  0  0  0  0  0  0  0  0
   14.8682    4.2370    8.4934 H   0  0  0  0  0  0  0  0  0  0  0  0
  1  3  2  0
  1  4  1  0
  1  5  1  0
  2  4  1  0
  2  6  1  0
  4  9  1  0
  4 15  1  0
  5  6  1  0
  5  8  1  0
  6  7  2  3
  9 10  2  0
  9 14  1  0
 10 11  1  0
 11 12  2  0
 12 13  1  0
 13 14  2  0
 15 16  2  0
 15 20  1  0
 16 17  1  0
 17 18  2  0
 18 19  1  0
 19 20  2  0
  2 21  1  0
  7 22  1  0
  8 23  1  0
  8 24  1  0
  8 25  1  0
 10 26  1  0
 11 27  1  0
 12 28  1  0
 13 29  1  0
 14 30  1  0
 16 31  1  0
 17 32  1  0
 19 33  1  0
 20 34  1  0
 35 36  2  0
 36 37  1  0
 37 38  2  0
 38 39  1  0
 39 40  2  0
 40 41  1  0
 40 35  1  0
 37 42  1  0
 38 43  1  0
 39 44  1  0
 41 45  1  0
 41 46  1  0
 41 47  1  0
 18 35  1  0
M  END
>  <attachment_point>  (244) 
32

>  <score>  (244) 
<NA>

$$$$
4djw
     RDKit          3D

 47 49  0  0  0  0  0  0  0  0999 V2000
   22.4950   11.8750   22.5810 C   0  0  0  0  0  0  0  0  0  0  0  0
   22.5380    9.4930   22.4640 N   0  0  0  0  0  0  0  0  0  0  0  0
   22.3600   13.0630   22.3480 O   0  0  0  0  0  0  0  0  0  0  0  0
   22.3390   10.6680   21.5610 C   0  0  0  0  0  0  0  0  0  0  0  0
   22.7860   11.3350   23.8120 N   0  0  0  0  0  0  0  0  0  0  0  0
   22.7800    9.9140   23.7010 C   0  0  0  0  0  0  0  0  0  0  0  0
   22.9970    9.1110   24.7490 N   0  0  0  0  0  0  0  0  0  0  0  0
   23.0220   12.1410   25.0180 C   0  0  0  0  0  0  0  0  0  0  0  0
   20.9020   10.6270   21.0050 C   0  0  0  0  0  0  0  0  0  0  0  0
   20.2720    9.4140   20.7470 C   0  0  0  0  0  0  0  0  0  0  0  0
   18.9690    9.3760   20.2600 C   0  0  0  0  0  0  0  0  0  0  0  0
   18.2800   10.5440   20.0210 C   0  0  0  0  0  0  0  0  0  0  0  0
   18.8920   11.7530   20.2590 C   0  0  0  0  0  0  0  0  0  0  0  0
   20.1950   11.7970   20.7440 C   0  0  0  0  0  0  0  0  0  0  0  0
   23.4880   10.6920   20.5300 C   0  0  0  0  0  0  0  0  0  0  0  0
   23.2110   10.7890   19.1730 C   0  0  0  0  0  0  0  0  0  0  0  0
   24.2350   10.8650   18.2430 C   0  0  0  0  0  0  0  0  0  0  0  0
   25.5500   10.8410   18.6560 C   0  0  0  0  0  0  0  0  0  0  0  0
   25.8710   10.7460   20.0070 C   0  0  0  0  0  0  0  0  0  0  0  0
   24.8260   10.6610   20.9430 C   0  0  0  0  0  0  0  0  0  0  0  0
    0.0000    0.0000    0.0000 H   0  0  0  0  0  0  0  0  0  0  0  0
    0.0000    0.0000    0.0000 H   0  0  0  0  0  0  0  0  0  0  0  0
    0.0000    0.0000    0.0000 H   0  0  0  0  0  0  0  0  0  0  0  0
    0.0000    0.0000    0.0000 H   0  0  0  0  0  0  0  0  0  0  0  0
    0.0000    0.0000    0.0000 H   0  0  0  0  0  0  0  0  0  0  0  0
    0.0000    0.0000    0.0000 H   0  0  0  0  0  0  0  0  0  0  0  0
    0.0000    0.0000    0.0000 H   0  0  0  0  0  0  0  0  0  0  0  0
    0.0000    0.0000    0.0000 H   0  0  0  0  0  0  0  0  0  0  0  0
    0.0000    0.0000    0.0000 H   0  0  0  0  0  0  0  0  0  0  0  0
    0.0000    0.0000    0.0000 H   0  0  0  0  0  0  0  0  0  0  0  0
    0.0000    0.0000    0.0000 H   0  0  0  0  0  0  0  0  0  0  0  0
    0.0000    0.0000    0.0000 H   0  0  0  0  0  0  0  0  0  0  0  0
    0.0000    0.0000    0.0000 H   0  0  0  0  0  0  0  0  0  0  0  0
    0.0000    0.0000    0.0000 H   0  0  0  0  0  0  0  0  0  0  0  0
   12.4712    5.2916    9.1062 C   0  0  0  0  0  0  0  0  0  0  0  0
   12.8870    4.2906    8.0567 C   0  0  0  0  0  0  0  0  0  0  0  0
   13.5175    3.0617    8.7009 C   0  0  0  0  0  0  0  0  0  0  0  0
   13.8867    2.1484    7.5868 C   0  0  0  0  0  0  0  0  0  0  0  0
   14.9107    2.3728    6.9007 O   0  0  0  0  0  0  0  0  0  0  0  0
   13.1380    1.0245    7.2516 O   0  0  0  0  0  0  0  0  0  0  0  0
   11.6351    4.8060    9.6810 H   0  0  0  0  0  0  0  0  0  0  0  0
   11.9806    6.1339    8.5613 H   0  0  0  0  0  0  0  0  0  0  0  0
   11.9665    3.9006    7.5318 H   0  0  0  0  0  0  0  0  0  0  0  0
   13.5623    4.6909    7.3072 H   0  0  0  0  0  0  0  0  0  0  0  0
   14.4496    3.3339    9.2240 H   0  0  0  0  0  0  0  0  0  0  0  0
   12.7739    2.5778    9.3497 H   0  0  0  0  0  0  0  0  0  0  0  0
   12.9900    0.7536    6.2678 H   0  0  0  0  0  0  0  0  0  0  0  0
  1  3  2  0
  1  4  1  0
  1  5  1  0
  2  4  1  0
  2  6  1  0
  4  9  1  0
  4 15  1  0
  5  6  1  0
  5  8  1  0
  6  7  2  3
  9 10  2  0
  9 14  1  0
 10 11  1  0
 11 12  2  0
 12 13  1  0
 13 14  2  0
 15 16  2  0
 15 20  1  0
 16 17  1  0
 17 18  2  0
 18 19  1  0
 19 20  2  0
  2 21  1  0
  7 22  1  0
  8 23  1  0
  8 24  1  0
  8 25  1  0
 10 26  1  0
 11 27  1  0
 12 28  1  0
 13 29  1  0
 14 30  1  0
 16 31  1  0
 17 32  1  0
 19 33  1  0
 20 34  1  0
 35 36  1  0
 36 37  1  0
 37 38  1  0
 38 39  2  0
 38 40  1  0
 35 41  1  0
 35 42  1  0
 36 43  1  0
 36 44  1  0
 37 45  1  0
 37 46  1  0
 40 47  1  0
 18 35  1  0
M  END
>  <attachment_point>  (245) 
32

>  <score>  (245) 
<NA>

$$$$
4djw
     RDKit          3D

 47 50  0  0  0  0  0  0  0  0999 V2000
   22.4950   11.8750   22.5810 C   0  0  0  0  0  0  0  0  0  0  0  0
   22.5380    9.4930   22.4640 N   0  0  0  0  0  0  0  0  0  0  0  0
   22.3600   13.0630   22.3480 O   0  0  0  0  0  0  0  0  0  0  0  0
   22.3390   10.6680   21.5610 C   0  0  0  0  0  0  0  0  0  0  0  0
   22.7860   11.3350   23.8120 N   0  0  0  0  0  0  0  0  0  0  0  0
   22.7800    9.9140   23.7010 C   0  0  0  0  0  0  0  0  0  0  0  0
   22.9970    9.1110   24.7490 N   0  0  0  0  0  0  0  0  0  0  0  0
   23.0220   12.1410   25.0180 C   0  0  0  0  0  0  0  0  0  0  0  0
   20.9020   10.6270   21.0050 C   0  0  0  0  0  0  0  0  0  0  0  0
   20.2720    9.4140   20.7470 C   0  0  0  0  0  0  0  0  0  0  0  0
   18.9690    9.3760   20.2600 C   0  0  0  0  0  0  0  0  0  0  0  0
   18.2800   10.5440   20.0210 C   0  0  0  0  0  0  0  0  0  0  0  0
   18.8920   11.7530   20.2590 C   0  0  0  0  0  0  0  0  0  0  0  0
   20.1950   11.7970   20.7440 C   0  0  0  0  0  0  0  0  0  0  0  0
   23.4880   10.6920   20.5300 C   0  0  0  0  0  0  0  0  0  0  0  0
   23.2110   10.7890   19.1730 C   0  0  0  0  0  0  0  0  0  0  0  0
   24.2350   10.8650   18.2430 C   0  0  0  0  0  0  0  0  0  0  0  0
   25.5500   10.8410   18.6560 C   0  0  0  0  0  0  0  0  0  0  0  0
   25.8710   10.7460   20.0070 C   0  0  0  0  0  0  0  0  0  0  0  0
   24.8260   10.6610   20.9430 C   0  0  0  0  0  0  0  0  0  0  0  0
    0.0000    0.0000    0.0000 H   0  0  0  0  0  0  0  0  0  0  0  0
    0.0000    0.0000    0.0000 H   0  0  0  0  0  0  0  0  0  0  0  0
    0.0000    0.0000    0.0000 H   0  0  0  0  0  0  0  0  0  0  0  0
    0.0000    0.0000    0.0000 H   0  0  0  0  0  0  0  0  0  0  0  0
    0.0000    0.0000    0.0000 H   0  0  0  0  0  0  0  0  0  0  0  0
    0.0000    0.0000    0.0000 H   0  0  0  0  0  0  0  0  0  0  0  0
    0.0000    0.0000    0.0000 H   0  0  0  0  0  0  0  0  0  0  0  0
    0.0000    0.0000    0.0000 H   0  0  0  0  0  0  0  0  0  0  0  0
    0.0000    0.0000    0.0000 H   0  0  0  0  0  0  0  0  0  0  0  0
    0.0000    0.0000    0.0000 H   0  0  0  0  0  0  0  0  0  0  0  0
    0.0000    0.0000    0.0000 H   0  0  0  0  0  0  0  0  0  0  0  0
    0.0000    0.0000    0.0000 H   0  0  0  0  0  0  0  0  0  0  0  0
    0.0000    0.0000    0.0000 H   0  0  0  0  0  0  0  0  0  0  0  0
    0.0000    0.0000    0.0000 H   0  0  0  0  0  0  0  0  0  0  0  0
   12.3985    5.2608    9.0531 C   0  0  0  0  0  0  0  0  0  0  0  0
   12.4399    4.2580    8.1746 C   0  0  0  0  0  0  0  0  0  0  0  0
   13.5807    3.3918    7.8047 C   0  0  0  0  0  0  0  0  0  0  0  0
   11.1792    4.1649    7.6477 N   0  0  0  0  0  0  0  0  0  0  0  0
   10.4351    5.0961    8.2152 O   0  0  0  0  0  0  0  0  0  0  0  0
   11.1619    5.7845    9.0842 C   0  0  0  0  0  0  0  0  0  0  0  0
   10.7164    6.9207    9.9394 C   0  0  0  0  0  0  0  0  0  0  0  0
   13.2916    2.3159    7.7244 H   0  0  0  0  0  0  0  0  0  0  0  0
   14.3414    3.4618    8.6253 H   0  0  0  0  0  0  0  0  0  0  0  0
   14.1018    3.7321    6.8809 H   0  0  0  0  0  0  0  0  0  0  0  0
    9.7475    7.3407    9.6214 H   0  0  0  0  0  0  0  0  0  0  0  0
   10.5904    6.5239   10.9842 H   0  0  0  0  0  0  0  0  0  0  0  0
   11.4992    7.7006    9.9581 H   0  0  0  0  0  0  0  0  0  0  0  0
  1  3  2  0
  1  4  1  0
  1  5  1  0
  2  4  1  0
  2  6  1  0
  4  9  1  0
  4 15  1  0
  5  6  1  0
  5  8  1  0
  6  7  2  3
  9 10  2  0
  9 14  1  0
 10 11  1  0
 11 12  2  0
 12 13  1  0
 13 14  2  0
 15 16  2  0
 15 20  1  0
 16 17  1  0
 17 18  2  0
 18 19  1  0
 19 20  2  0
  2 21  1  0
  7 22  1  0
  8 23  1  0
  8 24  1  0
  8 25  1  0
 10 26  1  0
 11 27  1  0
 12 28  1  0
 13 29  1  0
 14 30  1  0
 16 31  1  0
 17 32  1  0
 19 33  1  0
 20 34  1  0
 35 36  1  0
 36 37  1  0
 36 38  2  0
 38 39  1  0
 39 40  1  0
 40 41  1  0
 40 35  2  0
 37 42  1  0
 37 43  1  0
 37 44  1  0
 41 45  1  0
 41 46  1  0
 41 47  1  0
 18 35  1  0
M  END
>  <attachment_point>  (246) 
32

>  <score>  (246) 
<NA>

$$$$
4djw
     RDKit          3D

 54 57  0  0  0  0  0  0  0  0999 V2000
   22.4950   11.8750   22.5810 C   0  0  0  0  0  0  0  0  0  0  0  0
   22.5380    9.4930   22.4640 N   0  0  0  0  0  0  0  0  0  0  0  0
   22.3600   13.0630   22.3480 O   0  0  0  0  0  0  0  0  0  0  0  0
   22.3390   10.6680   21.5610 C   0  0  0  0  0  0  0  0  0  0  0  0
   22.7860   11.3350   23.8120 N   0  0  0  0  0  0  0  0  0  0  0  0
   22.7800    9.9140   23.7010 C   0  0  0  0  0  0  0  0  0  0  0  0
   22.9970    9.1110   24.7490 N   0  0  0  0  0  0  0  0  0  0  0  0
   23.0220   12.1410   25.0180 C   0  0  0  0  0  0  0  0  0  0  0  0
   20.9020   10.6270   21.0050 C   0  0  0  0  0  0  0  0  0  0  0  0
   20.2720    9.4140   20.7470 C   0  0  0  0  0  0  0  0  0  0  0  0
   18.9690    9.3760   20.2600 C   0  0  0  0  0  0  0  0  0  0  0  0
   18.2800   10.5440   20.0210 C   0  0  0  0  0  0  0  0  0  0  0  0
   18.8920   11.7530   20.2590 C   0  0  0  0  0  0  0  0  0  0  0  0
   20.1950   11.7970   20.7440 C   0  0  0  0  0  0  0  0  0  0  0  0
   23.4880   10.6920   20.5300 C   0  0  0  0  0  0  0  0  0  0  0  0
   23.2110   10.7890   19.1730 C   0  0  0  0  0  0  0  0  0  0  0  0
   24.2350   10.8650   18.2430 C   0  0  0  0  0  0  0  0  0  0  0  0
   25.5500   10.8410   18.6560 C   0  0  0  0  0  0  0  0  0  0  0  0
   25.8710   10.7460   20.0070 C   0  0  0  0  0  0  0  0  0  0  0  0
   24.8260   10.6610   20.9430 C   0  0  0  0  0  0  0  0  0  0  0  0
    0.0000    0.0000    0.0000 H   0  0  0  0  0  0  0  0  0  0  0  0
    0.0000    0.0000    0.0000 H   0  0  0  0  0  0  0  0  0  0  0  0
    0.0000    0.0000    0.0000 H   0  0  0  0  0  0  0  0  0  0  0  0
    0.0000    0.0000    0.0000 H   0  0  0  0  0  0  0  0  0  0  0  0
    0.0000    0.0000    0.0000 H   0  0  0  0  0  0  0  0  0  0  0  0
    0.0000    0.0000    0.0000 H   0  0  0  0  0  0  0  0  0  0  0  0
    0.0000    0.0000    0.0000 H   0  0  0  0  0  0  0  0  0  0  0  0
    0.0000    0.0000    0.0000 H   0  0  0  0  0  0  0  0  0  0  0  0
    0.0000    0.0000    0.0000 H   0  0  0  0  0  0  0  0  0  0  0  0
    0.0000    0.0000    0.0000 H   0  0  0  0  0  0  0  0  0  0  0  0
    0.0000    0.0000    0.0000 H   0  0  0  0  0  0  0  0  0  0  0  0
    0.0000    0.0000    0.0000 H   0  0  0  0  0  0  0  0  0  0  0  0
    0.0000    0.0000    0.0000 H   0  0  0  0  0  0  0  0  0  0  0  0
    0.0000    0.0000    0.0000 H   0  0  0  0  0  0  0  0  0  0  0  0
   12.4818    5.2961    9.1139 N   0  0  0  0  0  0  0  0  0  0  0  0
   12.2881    6.0988    7.9195 C   0  0  0  0  0  0  0  0  0  0  0  0
   13.5474    6.1083    7.1279 C   0  0  0  0  0  0  0  0  0  0  0  0
   14.5420    5.1465    7.5405 N   0  0  0  0  0  0  0  0  0  0  0  0
   15.8839    5.4165    7.2268 C   0  0  0  0  0  0  0  0  0  0  0  0
   16.2618    6.6352    6.5042 C   0  0  0  0  0  0  0  0  0  0  0  0
   16.7569    4.5976    7.5749 O   0  0  0  0  0  0  0  0  0  0  0  0
   14.2281    3.9287    8.2538 C   0  0  0  0  0  0  0  0  0  0  0  0
   12.7784    3.9442    8.6166 C   0  0  0  0  0  0  0  0  0  0  0  0
   11.5037    5.5694    7.3150 H   0  0  0  0  0  0  0  0  0  0  0  0
   11.9696    7.1243    8.1837 H   0  0  0  0  0  0  0  0  0  0  0  0
   13.3407    5.9096    6.0530 H   0  0  0  0  0  0  0  0  0  0  0  0
   14.0119    7.1140    7.2082 H   0  0  0  0  0  0  0  0  0  0  0  0
   15.5424    6.8838    5.6746 H   0  0  0  0  0  0  0  0  0  0  0  0
   16.4096    7.5141    7.1725 H   0  0  0  0  0  0  0  0  0  0  0  0
   17.2355    6.4670    6.0056 H   0  0  0  0  0  0  0  0  0  0  0  0
   14.9017    3.8097    9.1477 H   0  0  0  0  0  0  0  0  0  0  0  0
   14.4696    3.0401    7.6007 H   0  0  0  0  0  0  0  0  0  0  0  0
   12.1947    3.7505    7.6900 H   0  0  0  0  0  0  0  0  0  0  0  0
   12.4918    3.2078    9.3852 H   0  0  0  0  0  0  0  0  0  0  0  0
  1  3  2  0
  1  4  1  0
  1  5  1  0
  2  4  1  0
  2  6  1  0
  4  9  1  0
  4 15  1  0
  5  6  1  0
  5  8  1  0
  6  7  2  3
  9 10  2  0
  9 14  1  0
 10 11  1  0
 11 12  2  0
 12 13  1  0
 13 14  2  0
 15 16  2  0
 15 20  1  0
 16 17  1  0
 17 18  2  0
 18 19  1  0
 19 20  2  0
  2 21  1  0
  7 22  1  0
  8 23  1  0
  8 24  1  0
  8 25  1  0
 10 26  1  0
 11 27  1  0
 12 28  1  0
 13 29  1  0
 14 30  1  0
 16 31  1  0
 17 32  1  0
 19 33  1  0
 20 34  1  0
 35 36  1  0
 36 37  1  0
 37 38  1  0
 38 39  1  0
 39 40  1  0
 39 41  2  0
 38 42  1  0
 42 43  1  0
 43 35  1  0
 36 44  1  0
 36 45  1  0
 37 46  1  0
 37 47  1  0
 40 48  1  0
 40 49  1  0
 40 50  1  0
 42 51  1  0
 42 52  1  0
 43 53  1  0
 43 54  1  0
 18 35  1  0
M  END
>  <attachment_point>  (247) 
32

>  <score>  (247) 
<NA>

$$$$
4djw
     RDKit          3D

 45 48  0  0  0  0  0  0  0  0999 V2000
   22.4950   11.8750   22.5810 C   0  0  0  0  0  0  0  0  0  0  0  0
   22.5380    9.4930   22.4640 N   0  0  0  0  0  0  0  0  0  0  0  0
   22.3600   13.0630   22.3480 O   0  0  0  0  0  0  0  0  0  0  0  0
   22.3390   10.6680   21.5610 C   0  0  0  0  0  0  0  0  0  0  0  0
   22.7860   11.3350   23.8120 N   0  0  0  0  0  0  0  0  0  0  0  0
   22.7800    9.9140   23.7010 C   0  0  0  0  0  0  0  0  0  0  0  0
   22.9970    9.1110   24.7490 N   0  0  0  0  0  0  0  0  0  0  0  0
   23.0220   12.1410   25.0180 C   0  0  0  0  0  0  0  0  0  0  0  0
   20.9020   10.6270   21.0050 C   0  0  0  0  0  0  0  0  0  0  0  0
   20.2720    9.4140   20.7470 C   0  0  0  0  0  0  0  0  0  0  0  0
   18.9690    9.3760   20.2600 C   0  0  0  0  0  0  0  0  0  0  0  0
   18.2800   10.5440   20.0210 C   0  0  0  0  0  0  0  0  0  0  0  0
   18.8920   11.7530   20.2590 C   0  0  0  0  0  0  0  0  0  0  0  0
   20.1950   11.7970   20.7440 C   0  0  0  0  0  0  0  0  0  0  0  0
   23.4880   10.6920   20.5300 C   0  0  0  0  0  0  0  0  0  0  0  0
   23.2110   10.7890   19.1730 C   0  0  0  0  0  0  0  0  0  0  0  0
   24.2350   10.8650   18.2430 C   0  0  0  0  0  0  0  0  0  0  0  0
   25.5500   10.8410   18.6560 C   0  0  0  0  0  0  0  0  0  0  0  0
   25.8710   10.7460   20.0070 C   0  0  0  0  0  0  0  0  0  0  0  0
   24.8260   10.6610   20.9430 C   0  0  0  0  0  0  0  0  0  0  0  0
    0.0000    0.0000    0.0000 H   0  0  0  0  0  0  0  0  0  0  0  0
    0.0000    0.0000    0.0000 H   0  0  0  0  0  0  0  0  0  0  0  0
    0.0000    0.0000    0.0000 H   0  0  0  0  0  0  0  0  0  0  0  0
    0.0000    0.0000    0.0000 H   0  0  0  0  0  0  0  0  0  0  0  0
    0.0000    0.0000    0.0000 H   0  0  0  0  0  0  0  0  0  0  0  0
    0.0000    0.0000    0.0000 H   0  0  0  0  0  0  0  0  0  0  0  0
    0.0000    0.0000    0.0000 H   0  0  0  0  0  0  0  0  0  0  0  0
    0.0000    0.0000    0.0000 H   0  0  0  0  0  0  0  0  0  0  0  0
    0.0000    0.0000    0.0000 H   0  0  0  0  0  0  0  0  0  0  0  0
    0.0000    0.0000    0.0000 H   0  0  0  0  0  0  0  0  0  0  0  0
    0.0000    0.0000    0.0000 H   0  0  0  0  0  0  0  0  0  0  0  0
    0.0000    0.0000    0.0000 H   0  0  0  0  0  0  0  0  0  0  0  0
    0.0000    0.0000    0.0000 H   0  0  0  0  0  0  0  0  0  0  0  0
    0.0000    0.0000    0.0000 H   0  0  0  0  0  0  0  0  0  0  0  0
   12.4586    5.2863    9.0970 N   0  0  0  0  0  0  0  0  0  0  0  0
   11.1562    5.2762    9.3806 C   0  0  0  0  0  0  0  0  0  0  0  0
   10.5008    4.7351    8.3036 C   0  0  0  0  0  0  0  0  0  0  0  0
   11.4542    4.4256    7.3748 N   0  0  0  0  0  0  0  0  0  0  0  0
   12.6577    4.7675    7.8697 C   0  0  0  0  0  0  0  0  0  0  0  0
   13.9366    4.5785    7.1383 C   0  0  0  0  0  0  0  0  0  0  0  0
   10.6981    5.6216   10.2747 H   0  0  0  0  0  0  0  0  0  0  0  0
    9.4526    4.5524    8.1346 H   0  0  0  0  0  0  0  0  0  0  0  0
   14.1537    5.4990    6.5709 H   0  0  0  0  0  0  0  0  0  0  0  0
   14.7654    4.2846    7.8148 H   0  0  0  0  0  0  0  0  0  0  0  0
   13.8249    3.7506    6.4103 H   0  0  0  0  0  0  0  0  0  0  0  0
  1  3  2  0
  1  4  1  0
  1  5  1  0
  2  4  1  0
  2  6  1  0
  4  9  1  0
  4 15  1  0
  5  6  1  0
  5  8  1  0
  6  7  2  3
  9 10  2  0
  9 14  1  0
 10 11  1  0
 11 12  2  0
 12 13  1  0
 13 14  2  0
 15 16  2  0
 15 20  1  0
 16 17  1  0
 17 18  2  0
 18 19  1  0
 19 20  2  0
  2 21  1  0
  7 22  1  0
  8 23  1  0
  8 24  1  0
  8 25  1  0
 10 26  1  0
 11 27  1  0
 12 28  1  0
 13 29  1  0
 14 30  1  0
 16 31  1  0
 17 32  1  0
 19 33  1  0
 20 34  1  0
 35 36  1  0
 36 37  2  0
 37 38  1  0
 38 39  2  0
 39 40  1  0
 39 35  1  0
 36 41  1  0
 37 42  1  0
 40 43  1  0
 40 44  1  0
 40 45  1  0
 18 35  1  0
M  END
>  <attachment_point>  (248) 
32

>  <score>  (248) 
<NA>

$$$$
4djw
     RDKit          3D

 55 58  0  0  0  0  0  0  0  0999 V2000
   22.4950   11.8750   22.5810 C   0  0  0  0  0  0  0  0  0  0  0  0
   22.5380    9.4930   22.4640 N   0  0  0  0  0  0  0  0  0  0  0  0
   22.3600   13.0630   22.3480 O   0  0  0  0  0  0  0  0  0  0  0  0
   22.3390   10.6680   21.5610 C   0  0  0  0  0  0  0  0  0  0  0  0
   22.7860   11.3350   23.8120 N   0  0  0  0  0  0  0  0  0  0  0  0
   22.7800    9.9140   23.7010 C   0  0  0  0  0  0  0  0  0  0  0  0
   22.9970    9.1110   24.7490 N   0  0  0  0  0  0  0  0  0  0  0  0
   23.0220   12.1410   25.0180 C   0  0  0  0  0  0  0  0  0  0  0  0
   20.9020   10.6270   21.0050 C   0  0  0  0  0  0  0  0  0  0  0  0
   20.2720    9.4140   20.7470 C   0  0  0  0  0  0  0  0  0  0  0  0
   18.9690    9.3760   20.2600 C   0  0  0  0  0  0  0  0  0  0  0  0
   18.2800   10.5440   20.0210 C   0  0  0  0  0  0  0  0  0  0  0  0
   18.8920   11.7530   20.2590 C   0  0  0  0  0  0  0  0  0  0  0  0
   20.1950   11.7970   20.7440 C   0  0  0  0  0  0  0  0  0  0  0  0
   23.4880   10.6920   20.5300 C   0  0  0  0  0  0  0  0  0  0  0  0
   23.2110   10.7890   19.1730 C   0  0  0  0  0  0  0  0  0  0  0  0
   24.2350   10.8650   18.2430 C   0  0  0  0  0  0  0  0  0  0  0  0
   25.5500   10.8410   18.6560 C   0  0  0  0  0  0  0  0  0  0  0  0
   25.8710   10.7460   20.0070 C   0  0  0  0  0  0  0  0  0  0  0  0
   24.8260   10.6610   20.9430 C   0  0  0  0  0  0  0  0  0  0  0  0
    0.0000    0.0000    0.0000 H   0  0  0  0  0  0  0  0  0  0  0  0
    0.0000    0.0000    0.0000 H   0  0  0  0  0  0  0  0  0  0  0  0
    0.0000    0.0000    0.0000 H   0  0  0  0  0  0  0  0  0  0  0  0
    0.0000    0.0000    0.0000 H   0  0  0  0  0  0  0  0  0  0  0  0
    0.0000    0.0000    0.0000 H   0  0  0  0  0  0  0  0  0  0  0  0
    0.0000    0.0000    0.0000 H   0  0  0  0  0  0  0  0  0  0  0  0
    0.0000    0.0000    0.0000 H   0  0  0  0  0  0  0  0  0  0  0  0
    0.0000    0.0000    0.0000 H   0  0  0  0  0  0  0  0  0  0  0  0
    0.0000    0.0000    0.0000 H   0  0  0  0  0  0  0  0  0  0  0  0
    0.0000    0.0000    0.0000 H   0  0  0  0  0  0  0  0  0  0  0  0
    0.0000    0.0000    0.0000 H   0  0  0  0  0  0  0  0  0  0  0  0
    0.0000    0.0000    0.0000 H   0  0  0  0  0  0  0  0  0  0  0  0
    0.0000    0.0000    0.0000 H   0  0  0  0  0  0  0  0  0  0  0  0
    0.0000    0.0000    0.0000 H   0  0  0  0  0  0  0  0  0  0  0  0
   12.4500    5.2826    9.0907 N   0  0  0  0  0  0  0  0  0  0  0  0
   11.5026    4.8145   10.0715 C   0  0  0  0  0  0  0  0  0  0  0  0
   11.0679    6.0490   10.8263 C   0  0  0  0  0  0  0  0  0  0  0  0
   10.2920    6.8772    9.9574 N   0  0  0  0  0  0  0  0  0  0  0  0
    8.9581    6.3986    9.7231 C   0  0  0  0  0  0  0  0  0  0  0  0
    8.0930    6.4957   10.9545 C   0  0  0  0  0  0  0  0  0  0  0  0
   10.9995    7.2668    8.7777 C   0  0  0  0  0  0  0  0  0  0  0  0
   11.9605    6.2866    8.2135 C   0  0  0  0  0  0  0  0  0  0  0  0
   10.6673    4.2592    9.6282 H   0  0  0  0  0  0  0  0  0  0  0  0
   12.0531    4.1871   10.7916 H   0  0  0  0  0  0  0  0  0  0  0  0
   12.0151    6.6141   11.0415 H   0  0  0  0  0  0  0  0  0  0  0  0
   10.5315    5.8360   11.7588 H   0  0  0  0  0  0  0  0  0  0  0  0
    8.5292    7.0737    8.9234 H   0  0  0  0  0  0  0  0  0  0  0  0
    9.0053    5.3945    9.3171 H   0  0  0  0  0  0  0  0  0  0  0  0
    8.5084    7.2172   11.6972 H   0  0  0  0  0  0  0  0  0  0  0  0
    8.0071    5.4665   11.3784 H   0  0  0  0  0  0  0  0  0  0  0  0
    7.0743    6.7764   10.6201 H   0  0  0  0  0  0  0  0  0  0  0  0
   10.2246    7.4995    7.9985 H   0  0  0  0  0  0  0  0  0  0  0  0
   11.4833    8.2568    8.9836 H   0  0  0  0  0  0  0  0  0  0  0  0
   12.8483    6.8611    7.8381 H   0  0  0  0  0  0  0  0  0  0  0  0
   11.5476    5.7794    7.3119 H   0  0  0  0  0  0  0  0  0  0  0  0
  1  3  2  0
  1  4  1  0
  1  5  1  0
  2  4  1  0
  2  6  1  0
  4  9  1  0
  4 15  1  0
  5  6  1  0
  5  8  1  0
  6  7  2  3
  9 10  2  0
  9 14  1  0
 10 11  1  0
 11 12  2  0
 12 13  1  0
 13 14  2  0
 15 16  2  0
 15 20  1  0
 16 17  1  0
 17 18  2  0
 18 19  1  0
 19 20  2  0
  2 21  1  0
  7 22  1  0
  8 23  1  0
  8 24  1  0
  8 25  1  0
 10 26  1  0
 11 27  1  0
 12 28  1  0
 13 29  1  0
 14 30  1  0
 16 31  1  0
 17 32  1  0
 19 33  1  0
 20 34  1  0
 35 36  1  0
 36 37  1  0
 37 38  1  0
 38 39  1  0
 39 40  1  0
 38 41  1  0
 41 42  1  0
 42 35  1  0
 36 43  1  0
 36 44  1  0
 37 45  1  0
 37 46  1  0
 39 47  1  0
 39 48  1  0
 40 49  1  0
 40 50  1  0
 40 51  1  0
 41 52  1  0
 41 53  1  0
 42 54  1  0
 42 55  1  0
 18 35  1  0
M  END
>  <attachment_point>  (249) 
32

>  <score>  (249) 
<NA>

$$$$
4djw
     RDKit          3D

 59 64  0  0  0  0  0  0  0  0999 V2000
   22.4950   11.8750   22.5810 C   0  0  0  0  0  0  0  0  0  0  0  0
   22.5380    9.4930   22.4640 N   0  0  0  0  0  0  0  0  0  0  0  0
   22.3600   13.0630   22.3480 O   0  0  0  0  0  0  0  0  0  0  0  0
   22.3390   10.6680   21.5610 C   0  0  0  0  0  0  0  0  0  0  0  0
   22.7860   11.3350   23.8120 N   0  0  0  0  0  0  0  0  0  0  0  0
   22.7800    9.9140   23.7010 C   0  0  0  0  0  0  0  0  0  0  0  0
   22.9970    9.1110   24.7490 N   0  0  0  0  0  0  0  0  0  0  0  0
   23.0220   12.1410   25.0180 C   0  0  0  0  0  0  0  0  0  0  0  0
   20.9020   10.6270   21.0050 C   0  0  0  0  0  0  0  0  0  0  0  0
   20.2720    9.4140   20.7470 C   0  0  0  0  0  0  0  0  0  0  0  0
   18.9690    9.3760   20.2600 C   0  0  0  0  0  0  0  0  0  0  0  0
   18.2800   10.5440   20.0210 C   0  0  0  0  0  0  0  0  0  0  0  0
   18.8920   11.7530   20.2590 C   0  0  0  0  0  0  0  0  0  0  0  0
   20.1950   11.7970   20.7440 C   0  0  0  0  0  0  0  0  0  0  0  0
   23.4880   10.6920   20.5300 C   0  0  0  0  0  0  0  0  0  0  0  0
   23.2110   10.7890   19.1730 C   0  0  0  0  0  0  0  0  0  0  0  0
   24.2350   10.8650   18.2430 C   0  0  0  0  0  0  0  0  0  0  0  0
   25.5500   10.8410   18.6560 C   0  0  0  0  0  0  0  0  0  0  0  0
   25.8710   10.7460   20.0070 C   0  0  0  0  0  0  0  0  0  0  0  0
   24.8260   10.6610   20.9430 C   0  0  0  0  0  0  0  0  0  0  0  0
    0.0000    0.0000    0.0000 H   0  0  0  0  0  0  0  0  0  0  0  0
    0.0000    0.0000    0.0000 H   0  0  0  0  0  0  0  0  0  0  0  0
    0.0000    0.0000    0.0000 H   0  0  0  0  0  0  0  0  0  0  0  0
    0.0000    0.0000    0.0000 H   0  0  0  0  0  0  0  0  0  0  0  0
    0.0000    0.0000    0.0000 H   0  0  0  0  0  0  0  0  0  0  0  0
    0.0000    0.0000    0.0000 H   0  0  0  0  0  0  0  0  0  0  0  0
    0.0000    0.0000    0.0000 H   0  0  0  0  0  0  0  0  0  0  0  0
    0.0000    0.0000    0.0000 H   0  0  0  0  0  0  0  0  0  0  0  0
    0.0000    0.0000    0.0000 H   0  0  0  0  0  0  0  0  0  0  0  0
    0.0000    0.0000    0.0000 H   0  0  0  0  0  0  0  0  0  0  0  0
    0.0000    0.0000    0.0000 H   0  0  0  0  0  0  0  0  0  0  0  0
    0.0000    0.0000    0.0000 H   0  0  0  0  0  0  0  0  0  0  0  0
    0.0000    0.0000    0.0000 H   0  0  0  0  0  0  0  0  0  0  0  0
    0.0000    0.0000    0.0000 H   0  0  0  0  0  0  0  0  0  0  0  0
   12.4526    5.2837    9.0926 C   0  0  2  0  0  0  0  0  0  0  0  0
   11.2423    4.9623    9.9364 C   0  0  0  0  0  0  0  0  0  0  0  0
   10.0837    4.5944    9.0571 C   0  0  1  0  0  0  0  0  0  0  0  0
    9.8276    5.7307    8.0982 C   0  0  0  0  0  0  0  0  0  0  0  0
   11.0077    5.9223    7.1874 C   0  0  2  0  0  0  0  0  0  0  0  0
   11.4256    4.6756    6.4713 C   0  0  0  0  0  0  0  0  0  0  0  0
   11.6771    3.5701    7.4890 C   0  0  2  0  0  0  0  0  0  0  0  0
   10.3935    3.3670    8.2415 C   0  0  0  0  0  0  0  0  0  0  0  0
   12.8220    3.9993    8.3587 C   0  0  0  0  0  0  0  0  0  0  0  0
   12.1799    6.3522    8.0653 C   0  0  0  0  0  0  0  0  0  0  0  0
   11.5106    4.0322   10.5139 H   0  0  0  0  0  0  0  0  0  0  0  0
   10.9824    5.7434   10.6562 H   0  0  0  0  0  0  0  0  0  0  0  0
    9.1900    4.4386    9.6874 H   0  0  0  0  0  0  0  0  0  0  0  0
    8.8634    5.6610    7.5771 H   0  0  0  0  0  0  0  0  0  0  0  0
    9.7608    6.6595    8.7337 H   0  0  0  0  0  0  0  0  0  0  0  0
   10.7839    6.7092    6.4455 H   0  0  0  0  0  0  0  0  0  0  0  0
   12.4107    4.8762    5.9952 H   0  0  0  0  0  0  0  0  0  0  0  0
   10.6998    4.3750    5.6960 H   0  0  0  0  0  0  0  0  0  0  0  0
   11.9546    2.6216    7.0079 H   0  0  0  0  0  0  0  0  0  0  0  0
   10.3557    2.4303    8.8105 H   0  0  0  0  0  0  0  0  0  0  0  0
    9.5827    3.3065    7.4559 H   0  0  0  0  0  0  0  0  0  0  0  0
   13.1216    3.2377    9.0946 H   0  0  0  0  0  0  0  0  0  0  0  0
   13.6619    4.2754    7.6784 H   0  0  0  0  0  0  0  0  0  0  0  0
   11.9875    7.3264    8.5416 H   0  0  0  0  0  0  0  0  0  0  0  0
   13.0692    6.3673    7.3841 H   0  0  0  0  0  0  0  0  0  0  0  0
  1  3  2  0
  1  4  1  0
  1  5  1  0
  2  4  1  0
  2  6  1  0
  4  9  1  0
  4 15  1  0
  5  6  1  0
  5  8  1  0
  6  7  2  3
  9 10  2  0
  9 14  1  0
 10 11  1  0
 11 12  2  0
 12 13  1  0
 13 14  2  0
 15 16  2  0
 15 20  1  0
 16 17  1  0
 17 18  2  0
 18 19  1  0
 19 20  2  0
  2 21  1  0
  7 22  1  0
  8 23  1  0
  8 24  1  0
  8 25  1  0
 10 26  1  0
 11 27  1  0
 12 28  1  0
 13 29  1  0
 14 30  1  0
 16 31  1  0
 17 32  1  0
 19 33  1  0
 20 34  1  0
 35 36  1  0
 36 37  1  0
 37 38  1  0
 38 39  1  0
 39 40  1  0
 40 41  1  0
 41 42  1  0
 41 43  1  0
 39 44  1  0
 43 35  1  0
 44 35  1  0
 42 37  1  0
 36 45  1  0
 36 46  1  0
 37 47  1  1
 38 48  1  0
 38 49  1  0
 39 50  1  6
 40 51  1  0
 40 52  1  0
 41 53  1  6
 42 54  1  0
 42 55  1  0
 43 56  1  0
 43 57  1  0
 44 58  1  0
 44 59  1  0
 35 18  1  6
M  END
>  <attachment_point>  (250) 
32

>  <score>  (250) 
<NA>

$$$$
4djw
     RDKit          3D

 44 46  0  0  0  0  0  0  0  0999 V2000
   22.4950   11.8750   22.5810 C   0  0  0  0  0  0  0  0  0  0  0  0
   22.5380    9.4930   22.4640 N   0  0  0  0  0  0  0  0  0  0  0  0
   22.3600   13.0630   22.3480 O   0  0  0  0  0  0  0  0  0  0  0  0
   22.3390   10.6680   21.5610 C   0  0  0  0  0  0  0  0  0  0  0  0
   22.7860   11.3350   23.8120 N   0  0  0  0  0  0  0  0  0  0  0  0
   22.7800    9.9140   23.7010 C   0  0  0  0  0  0  0  0  0  0  0  0
   22.9970    9.1110   24.7490 N   0  0  0  0  0  0  0  0  0  0  0  0
   23.0220   12.1410   25.0180 C   0  0  0  0  0  0  0  0  0  0  0  0
   20.9020   10.6270   21.0050 C   0  0  0  0  0  0  0  0  0  0  0  0
   20.2720    9.4140   20.7470 C   0  0  0  0  0  0  0  0  0  0  0  0
   18.9690    9.3760   20.2600 C   0  0  0  0  0  0  0  0  0  0  0  0
   18.2800   10.5440   20.0210 C   0  0  0  0  0  0  0  0  0  0  0  0
   18.8920   11.7530   20.2590 C   0  0  0  0  0  0  0  0  0  0  0  0
   20.1950   11.7970   20.7440 C   0  0  0  0  0  0  0  0  0  0  0  0
   23.4880   10.6920   20.5300 C   0  0  0  0  0  0  0  0  0  0  0  0
   23.2110   10.7890   19.1730 C   0  0  0  0  0  0  0  0  0  0  0  0
   24.2350   10.8650   18.2430 C   0  0  0  0  0  0  0  0  0  0  0  0
   25.5500   10.8410   18.6560 C   0  0  0  0  0  0  0  0  0  0  0  0
   25.8710   10.7460   20.0070 C   0  0  0  0  0  0  0  0  0  0  0  0
   24.8260   10.6610   20.9430 C   0  0  0  0  0  0  0  0  0  0  0  0
    0.0000    0.0000    0.0000 H   0  0  0  0  0  0  0  0  0  0  0  0
    0.0000    0.0000    0.0000 H   0  0  0  0  0  0  0  0  0  0  0  0
    0.0000    0.0000    0.0000 H   0  0  0  0  0  0  0  0  0  0  0  0
    0.0000    0.0000    0.0000 H   0  0  0  0  0  0  0  0  0  0  0  0
    0.0000    0.0000    0.0000 H   0  0  0  0  0  0  0  0  0  0  0  0
    0.0000    0.0000    0.0000 H   0  0  0  0  0  0  0  0  0  0  0  0
    0.0000    0.0000    0.0000 H   0  0  0  0  0  0  0  0  0  0  0  0
    0.0000    0.0000    0.0000 H   0  0  0  0  0  0  0  0  0  0  0  0
    0.0000    0.0000    0.0000 H   0  0  0  0  0  0  0  0  0  0  0  0
    0.0000    0.0000    0.0000 H   0  0  0  0  0  0  0  0  0  0  0  0
    0.0000    0.0000    0.0000 H   0  0  0  0  0  0  0  0  0  0  0  0
    0.0000    0.0000    0.0000 H   0  0  0  0  0  0  0  0  0  0  0  0
    0.0000    0.0000    0.0000 H   0  0  0  0  0  0  0  0  0  0  0  0
    0.0000    0.0000    0.0000 H   0  0  0  0  0  0  0  0  0  0  0  0
   12.4267    5.2727    9.0737 C   0  0  1  0  0  0  0  0  0  0  0  0
   11.5283    6.4394    8.7662 C   0  0  0  0  0  0  0  0  0  0  0  0
   12.9388    4.6073    7.8590 C   0  0  0  0  0  0  0  0  0  0  0  0
   12.6901    3.3759    7.6300 O   0  0  0  0  0  0  0  0  0  0  0  0
   13.7079    5.2412    6.8948 O   0  0  0  0  0  0  0  0  0  0  0  0
   11.9705    4.5168    9.7180 H   0  0  0  0  0  0  0  0  0  0  0  0
   11.9635    7.4061    9.1391 H   0  0  0  0  0  0  0  0  0  0  0  0
   10.5611    6.2882    9.2711 H   0  0  0  0  0  0  0  0  0  0  0  0
   11.3836    6.5008    7.6876 H   0  0  0  0  0  0  0  0  0  0  0  0
   14.5330    4.8025    6.5011 H   0  0  0  0  0  0  0  0  0  0  0  0
  1  3  2  0
  1  4  1  0
  1  5  1  0
  2  4  1  0
  2  6  1  0
  4  9  1  0
  4 15  1  0
  5  6  1  0
  5  8  1  0
  6  7  2  3
  9 10  2  0
  9 14  1  0
 10 11  1  0
 11 12  2  0
 12 13  1  0
 13 14  2  0
 15 16  2  0
 15 20  1  0
 16 17  1  0
 17 18  2  0
 18 19  1  0
 19 20  2  0
  2 21  1  0
  7 22  1  0
  8 23  1  0
  8 24  1  0
  8 25  1  0
 10 26  1  0
 11 27  1  0
 12 28  1  0
 13 29  1  0
 14 30  1  0
 16 31  1  0
 17 32  1  0
 19 33  1  0
 20 34  1  0
 35 36  1  0
 35 37  1  0
 37 38  2  0
 37 39  1  0
 35 40  1  6
 36 41  1  0
 36 42  1  0
 36 43  1  0
 39 44  1  0
 18 35  1  0
M  END
>  <attachment_point>  (251) 
32

>  <score>  (251) 
<NA>

$$$$
4djw
     RDKit          3D

 45 48  0  0  0  0  0  0  0  0999 V2000
   22.4950   11.8750   22.5810 C   0  0  0  0  0  0  0  0  0  0  0  0
   22.5380    9.4930   22.4640 N   0  0  0  0  0  0  0  0  0  0  0  0
   22.3600   13.0630   22.3480 O   0  0  0  0  0  0  0  0  0  0  0  0
   22.3390   10.6680   21.5610 C   0  0  0  0  0  0  0  0  0  0  0  0
   22.7860   11.3350   23.8120 N   0  0  0  0  0  0  0  0  0  0  0  0
   22.7800    9.9140   23.7010 C   0  0  0  0  0  0  0  0  0  0  0  0
   22.9970    9.1110   24.7490 N   0  0  0  0  0  0  0  0  0  0  0  0
   23.0220   12.1410   25.0180 C   0  0  0  0  0  0  0  0  0  0  0  0
   20.9020   10.6270   21.0050 C   0  0  0  0  0  0  0  0  0  0  0  0
   20.2720    9.4140   20.7470 C   0  0  0  0  0  0  0  0  0  0  0  0
   18.9690    9.3760   20.2600 C   0  0  0  0  0  0  0  0  0  0  0  0
   18.2800   10.5440   20.0210 C   0  0  0  0  0  0  0  0  0  0  0  0
   18.8920   11.7530   20.2590 C   0  0  0  0  0  0  0  0  0  0  0  0
   20.1950   11.7970   20.7440 C   0  0  0  0  0  0  0  0  0  0  0  0
   23.4880   10.6920   20.5300 C   0  0  0  0  0  0  0  0  0  0  0  0
   23.2110   10.7890   19.1730 C   0  0  0  0  0  0  0  0  0  0  0  0
   24.2350   10.8650   18.2430 C   0  0  0  0  0  0  0  0  0  0  0  0
   25.5500   10.8410   18.6560 C   0  0  0  0  0  0  0  0  0  0  0  0
   25.8710   10.7460   20.0070 C   0  0  0  0  0  0  0  0  0  0  0  0
   24.8260   10.6610   20.9430 C   0  0  0  0  0  0  0  0  0  0  0  0
    0.0000    0.0000    0.0000 H   0  0  0  0  0  0  0  0  0  0  0  0
    0.0000    0.0000    0.0000 H   0  0  0  0  0  0  0  0  0  0  0  0
    0.0000    0.0000    0.0000 H   0  0  0  0  0  0  0  0  0  0  0  0
    0.0000    0.0000    0.0000 H   0  0  0  0  0  0  0  0  0  0  0  0
    0.0000    0.0000    0.0000 H   0  0  0  0  0  0  0  0  0  0  0  0
    0.0000    0.0000    0.0000 H   0  0  0  0  0  0  0  0  0  0  0  0
    0.0000    0.0000    0.0000 H   0  0  0  0  0  0  0  0  0  0  0  0
    0.0000    0.0000    0.0000 H   0  0  0  0  0  0  0  0  0  0  0  0
    0.0000    0.0000    0.0000 H   0  0  0  0  0  0  0  0  0  0  0  0
    0.0000    0.0000    0.0000 H   0  0  0  0  0  0  0  0  0  0  0  0
    0.0000    0.0000    0.0000 H   0  0  0  0  0  0  0  0  0  0  0  0
    0.0000    0.0000    0.0000 H   0  0  0  0  0  0  0  0  0  0  0  0
    0.0000    0.0000    0.0000 H   0  0  0  0  0  0  0  0  0  0  0  0
    0.0000    0.0000    0.0000 H   0  0  0  0  0  0  0  0  0  0  0  0
   12.4302    5.2742    9.0763 C   0  0  0  0  0  0  0  0  0  0  0  0
   12.2930    3.9215    8.8346 C   0  0  0  0  0  0  0  0  0  0  0  0
   11.2164    3.5427    8.0568 C   0  0  0  0  0  0  0  0  0  0  0  0
   11.0459    2.2088    7.7945 F   0  0  0  0  0  0  0  0  0  0  0  0
   10.3240    4.4669    7.5474 C   0  0  0  0  0  0  0  0  0  0  0  0
   10.4777    5.8152    7.7998 C   0  0  0  0  0  0  0  0  0  0  0  0
    9.6010    6.7306    7.3003 F   0  0  0  0  0  0  0  0  0  0  0  0
   11.5478    6.2097    8.5749 C   0  0  0  0  0  0  0  0  0  0  0  0
   12.9951    3.2018    9.2361 H   0  0  0  0  0  0  0  0  0  0  0  0
    9.4777    4.1688    6.9361 H   0  0  0  0  0  0  0  0  0  0  0  0
   11.6771    7.2820    8.7804 H   0  0  0  0  0  0  0  0  0  0  0  0
  1  3  2  0
  1  4  1  0
  1  5  1  0
  2  4  1  0
  2  6  1  0
  4  9  1  0
  4 15  1  0
  5  6  1  0
  5  8  1  0
  6  7  2  3
  9 10  2  0
  9 14  1  0
 10 11  1  0
 11 12  2  0
 12 13  1  0
 13 14  2  0
 15 16  2  0
 15 20  1  0
 16 17  1  0
 17 18  2  0
 18 19  1  0
 19 20  2  0
  2 21  1  0
  7 22  1  0
  8 23  1  0
  8 24  1  0
  8 25  1  0
 10 26  1  0
 11 27  1  0
 12 28  1  0
 13 29  1  0
 14 30  1  0
 16 31  1  0
 17 32  1  0
 19 33  1  0
 20 34  1  0
 35 36  2  0
 36 37  1  0
 37 38  1  0
 37 39  2  0
 39 40  1  0
 40 41  1  0
 40 42  2  0
 42 35  1  0
 36 43  1  0
 39 44  1  0
 42 45  1  0
 18 35  1  0
M  END
>  <attachment_point>  (252) 
32

>  <score>  (252) 
<NA>

$$$$
4djw
     RDKit          3D

 48 51  0  0  0  0  0  0  0  0999 V2000
   22.4950   11.8750   22.5810 C   0  0  0  0  0  0  0  0  0  0  0  0
   22.5380    9.4930   22.4640 N   0  0  0  0  0  0  0  0  0  0  0  0
   22.3600   13.0630   22.3480 O   0  0  0  0  0  0  0  0  0  0  0  0
   22.3390   10.6680   21.5610 C   0  0  0  0  0  0  0  0  0  0  0  0
   22.7860   11.3350   23.8120 N   0  0  0  0  0  0  0  0  0  0  0  0
   22.7800    9.9140   23.7010 C   0  0  0  0  0  0  0  0  0  0  0  0
   22.9970    9.1110   24.7490 N   0  0  0  0  0  0  0  0  0  0  0  0
   23.0220   12.1410   25.0180 C   0  0  0  0  0  0  0  0  0  0  0  0
   20.9020   10.6270   21.0050 C   0  0  0  0  0  0  0  0  0  0  0  0
   20.2720    9.4140   20.7470 C   0  0  0  0  0  0  0  0  0  0  0  0
   18.9690    9.3760   20.2600 C   0  0  0  0  0  0  0  0  0  0  0  0
   18.2800   10.5440   20.0210 C   0  0  0  0  0  0  0  0  0  0  0  0
   18.8920   11.7530   20.2590 C   0  0  0  0  0  0  0  0  0  0  0  0
   20.1950   11.7970   20.7440 C   0  0  0  0  0  0  0  0  0  0  0  0
   23.4880   10.6920   20.5300 C   0  0  0  0  0  0  0  0  0  0  0  0
   23.2110   10.7890   19.1730 C   0  0  0  0  0  0  0  0  0  0  0  0
   24.2350   10.8650   18.2430 C   0  0  0  0  0  0  0  0  0  0  0  0
   25.5500   10.8410   18.6560 C   0  0  0  0  0  0  0  0  0  0  0  0
   25.8710   10.7460   20.0070 C   0  0  0  0  0  0  0  0  0  0  0  0
   24.8260   10.6610   20.9430 C   0  0  0  0  0  0  0  0  0  0  0  0
    0.0000    0.0000    0.0000 H   0  0  0  0  0  0  0  0  0  0  0  0
    0.0000    0.0000    0.0000 H   0  0  0  0  0  0  0  0  0  0  0  0
    0.0000    0.0000    0.0000 H   0  0  0  0  0  0  0  0  0  0  0  0
    0.0000    0.0000    0.0000 H   0  0  0  0  0  0  0  0  0  0  0  0
    0.0000    0.0000    0.0000 H   0  0  0  0  0  0  0  0  0  0  0  0
    0.0000    0.0000    0.0000 H   0  0  0  0  0  0  0  0  0  0  0  0
    0.0000    0.0000    0.0000 H   0  0  0  0  0  0  0  0  0  0  0  0
    0.0000    0.0000    0.0000 H   0  0  0  0  0  0  0  0  0  0  0  0
    0.0000    0.0000    0.0000 H   0  0  0  0  0  0  0  0  0  0  0  0
    0.0000    0.0000    0.0000 H   0  0  0  0  0  0  0  0  0  0  0  0
    0.0000    0.0000    0.0000 H   0  0  0  0  0  0  0  0  0  0  0  0
    0.0000    0.0000    0.0000 H   0  0  0  0  0  0  0  0  0  0  0  0
    0.0000    0.0000    0.0000 H   0  0  0  0  0  0  0  0  0  0  0  0
    0.0000    0.0000    0.0000 H   0  0  0  0  0  0  0  0  0  0  0  0
   12.4450    5.2805    9.0870 C   0  0  0  0  0  0  0  0  0  0  0  0
   12.2427    3.8214    9.2943 C   0  0  0  0  0  0  0  0  0  0  0  0
   12.8875    2.8748    8.5100 C   0  0  0  0  0  0  0  0  0  0  0  0
   12.6954    1.5178    8.7076 C   0  0  0  0  0  0  0  0  0  0  0  0
   11.8570    1.0452    9.6898 C   0  0  0  0  0  0  0  0  0  0  0  0
   11.2120    1.9776   10.4739 C   0  0  0  0  0  0  0  0  0  0  0  0
   10.1283    1.3959   11.7441 Cl  0  0  0  0  0  0  0  0  0  0  0  0
   11.4036    3.3349   10.2770 C   0  0  0  0  0  0  0  0  0  0  0  0
   11.5275    5.8699    9.2388 H   0  0  0  0  0  0  0  0  0  0  0  0
   12.7644    5.4685    8.0242 H   0  0  0  0  0  0  0  0  0  0  0  0
   13.5467    3.2608    7.7381 H   0  0  0  0  0  0  0  0  0  0  0  0
   13.2115    0.8024    8.0807 H   0  0  0  0  0  0  0  0  0  0  0  0
   11.6811   -0.0064    9.8748 H   0  0  0  0  0  0  0  0  0  0  0  0
   10.8908    4.0586   10.9002 H   0  0  0  0  0  0  0  0  0  0  0  0
  1  3  2  0
  1  4  1  0
  1  5  1  0
  2  4  1  0
  2  6  1  0
  4  9  1  0
  4 15  1  0
  5  6  1  0
  5  8  1  0
  6  7  2  3
  9 10  2  0
  9 14  1  0
 10 11  1  0
 11 12  2  0
 12 13  1  0
 13 14  2  0
 15 16  2  0
 15 20  1  0
 16 17  1  0
 17 18  2  0
 18 19  1  0
 19 20  2  0
  2 21  1  0
  7 22  1  0
  8 23  1  0
  8 24  1  0
  8 25  1  0
 10 26  1  0
 11 27  1  0
 12 28  1  0
 13 29  1  0
 14 30  1  0
 16 31  1  0
 17 32  1  0
 19 33  1  0
 20 34  1  0
 35 36  1  0
 36 37  2  0
 37 38  1  0
 38 39  2  0
 39 40  1  0
 40 41  1  0
 40 42  2  0
 42 36  1  0
 35 43  1  0
 35 44  1  0
 37 45  1  0
 38 46  1  0
 39 47  1  0
 42 48  1  0
 18 35  1  0
M  END
>  <attachment_point>  (253) 
32

>  <score>  (253) 
<NA>

$$$$
4djw
     RDKit          3D

 45 48  0  0  0  0  0  0  0  0999 V2000
   22.4950   11.8750   22.5810 C   0  0  0  0  0  0  0  0  0  0  0  0
   22.5380    9.4930   22.4640 N   0  0  0  0  0  0  0  0  0  0  0  0
   22.3600   13.0630   22.3480 O   0  0  0  0  0  0  0  0  0  0  0  0
   22.3390   10.6680   21.5610 C   0  0  0  0  0  0  0  0  0  0  0  0
   22.7860   11.3350   23.8120 N   0  0  0  0  0  0  0  0  0  0  0  0
   22.7800    9.9140   23.7010 C   0  0  0  0  0  0  0  0  0  0  0  0
   22.9970    9.1110   24.7490 N   0  0  0  0  0  0  0  0  0  0  0  0
   23.0220   12.1410   25.0180 C   0  0  0  0  0  0  0  0  0  0  0  0
   20.9020   10.6270   21.0050 C   0  0  0  0  0  0  0  0  0  0  0  0
   20.2720    9.4140   20.7470 C   0  0  0  0  0  0  0  0  0  0  0  0
   18.9690    9.3760   20.2600 C   0  0  0  0  0  0  0  0  0  0  0  0
   18.2800   10.5440   20.0210 C   0  0  0  0  0  0  0  0  0  0  0  0
   18.8920   11.7530   20.2590 C   0  0  0  0  0  0  0  0  0  0  0  0
   20.1950   11.7970   20.7440 C   0  0  0  0  0  0  0  0  0  0  0  0
   23.4880   10.6920   20.5300 C   0  0  0  0  0  0  0  0  0  0  0  0
   23.2110   10.7890   19.1730 C   0  0  0  0  0  0  0  0  0  0  0  0
   24.2350   10.8650   18.2430 C   0  0  0  0  0  0  0  0  0  0  0  0
   25.5500   10.8410   18.6560 C   0  0  0  0  0  0  0  0  0  0  0  0
   25.8710   10.7460   20.0070 C   0  0  0  0  0  0  0  0  0  0  0  0
   24.8260   10.6610   20.9430 C   0  0  0  0  0  0  0  0  0  0  0  0
    0.0000    0.0000    0.0000 H   0  0  0  0  0  0  0  0  0  0  0  0
    0.0000    0.0000    0.0000 H   0  0  0  0  0  0  0  0  0  0  0  0
    0.0000    0.0000    0.0000 H   0  0  0  0  0  0  0  0  0  0  0  0
    0.0000    0.0000    0.0000 H   0  0  0  0  0  0  0  0  0  0  0  0
    0.0000    0.0000    0.0000 H   0  0  0  0  0  0  0  0  0  0  0  0
    0.0000    0.0000    0.0000 H   0  0  0  0  0  0  0  0  0  0  0  0
    0.0000    0.0000    0.0000 H   0  0  0  0  0  0  0  0  0  0  0  0
    0.0000    0.0000    0.0000 H   0  0  0  0  0  0  0  0  0  0  0  0
    0.0000    0.0000    0.0000 H   0  0  0  0  0  0  0  0  0  0  0  0
    0.0000    0.0000    0.0000 H   0  0  0  0  0  0  0  0  0  0  0  0
    0.0000    0.0000    0.0000 H   0  0  0  0  0  0  0  0  0  0  0  0
    0.0000    0.0000    0.0000 H   0  0  0  0  0  0  0  0  0  0  0  0
    0.0000    0.0000    0.0000 H   0  0  0  0  0  0  0  0  0  0  0  0
    0.0000    0.0000    0.0000 H   0  0  0  0  0  0  0  0  0  0  0  0
   12.3740    5.2503    9.0352 C   0  0  0  0  0  0  0  0  0  0  0  0
   12.2520    3.9346    8.8636 C   0  0  0  0  0  0  0  0  0  0  0  0
   11.1702    3.4790    8.0737 C   0  0  0  0  0  0  0  0  0  0  0  0
   10.3120    4.4071    7.5314 C   0  0  0  0  0  0  0  0  0  0  0  0
    9.2494    3.9913    6.7578 F   0  0  0  0  0  0  0  0  0  0  0  0
   10.4809    5.7595    7.7385 C   0  0  0  0  0  0  0  0  0  0  0  0
    9.6520    6.6625    7.2152 F   0  0  0  0  0  0  0  0  0  0  0  0
   11.5718    6.1896    8.5330 C   0  0  0  0  0  0  0  0  0  0  0  0
   12.9437    3.2372    9.3039 H   0  0  0  0  0  0  0  0  0  0  0  0
   11.0564    2.4201    7.9247 H   0  0  0  0  0  0  0  0  0  0  0  0
   11.6954    7.2515    8.6892 H   0  0  0  0  0  0  0  0  0  0  0  0
  1  3  2  0
  1  4  1  0
  1  5  1  0
  2  4  1  0
  2  6  1  0
  4  9  1  0
  4 15  1  0
  5  6  1  0
  5  8  1  0
  6  7  2  3
  9 10  2  0
  9 14  1  0
 10 11  1  0
 11 12  2  0
 12 13  1  0
 13 14  2  0
 15 16  2  0
 15 20  1  0
 16 17  1  0
 17 18  2  0
 18 19  1  0
 19 20  2  0
  2 21  1  0
  7 22  1  0
  8 23  1  0
  8 24  1  0
  8 25  1  0
 10 26  1  0
 11 27  1  0
 12 28  1  0
 13 29  1  0
 14 30  1  0
 16 31  1  0
 17 32  1  0
 19 33  1  0
 20 34  1  0
 35 36  2  0
 36 37  1  0
 37 38  2  0
 38 39  1  0
 38 40  1  0
 40 41  1  0
 40 42  2  0
 42 35  1  0
 36 43  1  0
 37 44  1  0
 42 45  1  0
 18 35  1  0
M  END
>  <attachment_point>  (254) 
32

>  <score>  (254) 
<NA>

$$$$
4djw
     RDKit          3D

 51 54  0  0  0  0  0  0  0  0999 V2000
   22.4950   11.8750   22.5810 C   0  0  0  0  0  0  0  0  0  0  0  0
   22.5380    9.4930   22.4640 N   0  0  0  0  0  0  0  0  0  0  0  0
   22.3600   13.0630   22.3480 O   0  0  0  0  0  0  0  0  0  0  0  0
   22.3390   10.6680   21.5610 C   0  0  0  0  0  0  0  0  0  0  0  0
   22.7860   11.3350   23.8120 N   0  0  0  0  0  0  0  0  0  0  0  0
   22.7800    9.9140   23.7010 C   0  0  0  0  0  0  0  0  0  0  0  0
   22.9970    9.1110   24.7490 N   0  0  0  0  0  0  0  0  0  0  0  0
   23.0220   12.1410   25.0180 C   0  0  0  0  0  0  0  0  0  0  0  0
   20.9020   10.6270   21.0050 C   0  0  0  0  0  0  0  0  0  0  0  0
   20.2720    9.4140   20.7470 C   0  0  0  0  0  0  0  0  0  0  0  0
   18.9690    9.3760   20.2600 C   0  0  0  0  0  0  0  0  0  0  0  0
   18.2800   10.5440   20.0210 C   0  0  0  0  0  0  0  0  0  0  0  0
   18.8920   11.7530   20.2590 C   0  0  0  0  0  0  0  0  0  0  0  0
   20.1950   11.7970   20.7440 C   0  0  0  0  0  0  0  0  0  0  0  0
   23.4880   10.6920   20.5300 C   0  0  0  0  0  0  0  0  0  0  0  0
   23.2110   10.7890   19.1730 C   0  0  0  0  0  0  0  0  0  0  0  0
   24.2350   10.8650   18.2430 C   0  0  0  0  0  0  0  0  0  0  0  0
   25.5500   10.8410   18.6560 C   0  0  0  0  0  0  0  0  0  0  0  0
   25.8710   10.7460   20.0070 C   0  0  0  0  0  0  0  0  0  0  0  0
   24.8260   10.6610   20.9430 C   0  0  0  0  0  0  0  0  0  0  0  0
    0.0000    0.0000    0.0000 H   0  0  0  0  0  0  0  0  0  0  0  0
    0.0000    0.0000    0.0000 H   0  0  0  0  0  0  0  0  0  0  0  0
    0.0000    0.0000    0.0000 H   0  0  0  0  0  0  0  0  0  0  0  0
    0.0000    0.0000    0.0000 H   0  0  0  0  0  0  0  0  0  0  0  0
    0.0000    0.0000    0.0000 H   0  0  0  0  0  0  0  0  0  0  0  0
    0.0000    0.0000    0.0000 H   0  0  0  0  0  0  0  0  0  0  0  0
    0.0000    0.0000    0.0000 H   0  0  0  0  0  0  0  0  0  0  0  0
    0.0000    0.0000    0.0000 H   0  0  0  0  0  0  0  0  0  0  0  0
    0.0000    0.0000    0.0000 H   0  0  0  0  0  0  0  0  0  0  0  0
    0.0000    0.0000    0.0000 H   0  0  0  0  0  0  0  0  0  0  0  0
    0.0000    0.0000    0.0000 H   0  0  0  0  0  0  0  0  0  0  0  0
    0.0000    0.0000    0.0000 H   0  0  0  0  0  0  0  0  0  0  0  0
    0.0000    0.0000    0.0000 H   0  0  0  0  0  0  0  0  0  0  0  0
    0.0000    0.0000    0.0000 H   0  0  0  0  0  0  0  0  0  0  0  0
   12.4056    5.2638    9.0583 N   0  0  0  0  0  0  0  0  0  0  0  0
   12.7636    4.5054    7.9318 C   0  0  0  0  0  0  0  0  0  0  0  0
   13.9642    4.2754    7.6812 O   0  0  0  0  0  0  0  0  0  0  0  0
   11.7726    3.9866    7.0584 N   0  0  0  0  0  0  0  0  0  0  0  0
   12.0043    3.2204    5.9095 C   0  0  0  0  0  0  0  0  0  0  0  0
   13.2106    2.8289    5.4131 C   0  0  0  0  0  0  0  0  0  0  0  0
   13.3302    2.0614    4.2527 C   0  0  0  0  0  0  0  0  0  0  0  0
   12.1971    1.6700    3.5616 C   0  0  0  0  0  0  0  0  0  0  0  0
   10.9843    2.0485    4.0378 C   0  0  0  0  0  0  0  0  0  0  0  0
   10.8721    2.8061    5.1834 C   0  0  0  0  0  0  0  0  0  0  0  0
   11.5075    5.5192    9.3731 H   0  0  0  0  0  0  0  0  0  0  0  0
   10.7695    4.2378    7.3579 H   0  0  0  0  0  0  0  0  0  0  0  0
   14.1338    3.0858    5.8818 H   0  0  0  0  0  0  0  0  0  0  0  0
   14.2863    1.7508    3.8588 H   0  0  0  0  0  0  0  0  0  0  0  0
   12.2873    1.0759    2.6633 H   0  0  0  0  0  0  0  0  0  0  0  0
   10.1041    1.7268    3.4738 H   0  0  0  0  0  0  0  0  0  0  0  0
    9.8898    3.0900    5.5347 H   0  0  0  0  0  0  0  0  0  0  0  0
  1  3  2  0
  1  4  1  0
  1  5  1  0
  2  4  1  0
  2  6  1  0
  4  9  1  0
  4 15  1  0
  5  6  1  0
  5  8  1  0
  6  7  2  3
  9 10  2  0
  9 14  1  0
 10 11  1  0
 11 12  2  0
 12 13  1  0
 13 14  2  0
 15 16  2  0
 15 20  1  0
 16 17  1  0
 17 18  2  0
 18 19  1  0
 19 20  2  0
  2 21  1  0
  7 22  1  0
  8 23  1  0
  8 24  1  0
  8 25  1  0
 10 26  1  0
 11 27  1  0
 12 28  1  0
 13 29  1  0
 14 30  1  0
 16 31  1  0
 17 32  1  0
 19 33  1  0
 20 34  1  0
 35 36  1  0
 36 37  2  0
 36 38  1  0
 38 39  1  0
 39 40  2  0
 40 41  1  0
 41 42  2  0
 42 43  1  0
 43 44  2  0
 44 39  1  0
 35 45  1  0
 38 46  1  0
 40 47  1  0
 41 48  1  0
 42 49  1  0
 43 50  1  0
 44 51  1  0
 18 35  1  0
M  END
>  <attachment_point>  (255) 
32

>  <score>  (255) 
<NA>

$$$$
4djw
     RDKit          3D

 48 50  0  0  0  0  0  0  0  0999 V2000
   22.4950   11.8750   22.5810 C   0  0  0  0  0  0  0  0  0  0  0  0
   22.5380    9.4930   22.4640 N   0  0  0  0  0  0  0  0  0  0  0  0
   22.3600   13.0630   22.3480 O   0  0  0  0  0  0  0  0  0  0  0  0
   22.3390   10.6680   21.5610 C   0  0  0  0  0  0  0  0  0  0  0  0
   22.7860   11.3350   23.8120 N   0  0  0  0  0  0  0  0  0  0  0  0
   22.7800    9.9140   23.7010 C   0  0  0  0  0  0  0  0  0  0  0  0
   22.9970    9.1110   24.7490 N   0  0  0  0  0  0  0  0  0  0  0  0
   23.0220   12.1410   25.0180 C   0  0  0  0  0  0  0  0  0  0  0  0
   20.9020   10.6270   21.0050 C   0  0  0  0  0  0  0  0  0  0  0  0
   20.2720    9.4140   20.7470 C   0  0  0  0  0  0  0  0  0  0  0  0
   18.9690    9.3760   20.2600 C   0  0  0  0  0  0  0  0  0  0  0  0
   18.2800   10.5440   20.0210 C   0  0  0  0  0  0  0  0  0  0  0  0
   18.8920   11.7530   20.2590 C   0  0  0  0  0  0  0  0  0  0  0  0
   20.1950   11.7970   20.7440 C   0  0  0  0  0  0  0  0  0  0  0  0
   23.4880   10.6920   20.5300 C   0  0  0  0  0  0  0  0  0  0  0  0
   23.2110   10.7890   19.1730 C   0  0  0  0  0  0  0  0  0  0  0  0
   24.2350   10.8650   18.2430 C   0  0  0  0  0  0  0  0  0  0  0  0
   25.5500   10.8410   18.6560 C   0  0  0  0  0  0  0  0  0  0  0  0
   25.8710   10.7460   20.0070 C   0  0  0  0  0  0  0  0  0  0  0  0
   24.8260   10.6610   20.9430 C   0  0  0  0  0  0  0  0  0  0  0  0
    0.0000    0.0000    0.0000 H   0  0  0  0  0  0  0  0  0  0  0  0
    0.0000    0.0000    0.0000 H   0  0  0  0  0  0  0  0  0  0  0  0
    0.0000    0.0000    0.0000 H   0  0  0  0  0  0  0  0  0  0  0  0
    0.0000    0.0000    0.0000 H   0  0  0  0  0  0  0  0  0  0  0  0
    0.0000    0.0000    0.0000 H   0  0  0  0  0  0  0  0  0  0  0  0
    0.0000    0.0000    0.0000 H   0  0  0  0  0  0  0  0  0  0  0  0
    0.0000    0.0000    0.0000 H   0  0  0  0  0  0  0  0  0  0  0  0
    0.0000    0.0000    0.0000 H   0  0  0  0  0  0  0  0  0  0  0  0
    0.0000    0.0000    0.0000 H   0  0  0  0  0  0  0  0  0  0  0  0
    0.0000    0.0000    0.0000 H   0  0  0  0  0  0  0  0  0  0  0  0
    0.0000    0.0000    0.0000 H   0  0  0  0  0  0  0  0  0  0  0  0
    0.0000    0.0000    0.0000 H   0  0  0  0  0  0  0  0  0  0  0  0
    0.0000    0.0000    0.0000 H   0  0  0  0  0  0  0  0  0  0  0  0
    0.0000    0.0000    0.0000 H   0  0  0  0  0  0  0  0  0  0  0  0
   12.5326    5.3177    9.1510 O   0  0  0  0  0  0  0  0  0  0  0  0
   12.5279    5.6693    7.7873 C   0  0  0  0  0  0  0  0  0  0  0  0
   12.5083    7.1780    7.7100 C   0  0  0  0  0  0  0  0  0  0  0  0
   11.2172    5.1554    7.2311 C   0  0  0  0  0  0  0  0  0  0  0  0
   13.7261    5.0816    7.1307 C   0  0  0  0  0  0  0  0  0  0  0  0
   12.2976    7.6539    8.6916 H   0  0  0  0  0  0  0  0  0  0  0  0
   11.7154    7.5476    7.0189 H   0  0  0  0  0  0  0  0  0  0  0  0
   13.4978    7.4909    7.2956 H   0  0  0  0  0  0  0  0  0  0  0  0
   11.0134    4.1084    7.4900 H   0  0  0  0  0  0  0  0  0  0  0  0
   10.4184    5.7554    7.7603 H   0  0  0  0  0  0  0  0  0  0  0  0
   11.1107    5.3790    6.1463 H   0  0  0  0  0  0  0  0  0  0  0  0
   13.5619    4.7360    6.0933 H   0  0  0  0  0  0  0  0  0  0  0  0
   14.5563    5.8188    7.0835 H   0  0  0  0  0  0  0  0  0  0  0  0
   14.0888    4.2034    7.6999 H   0  0  0  0  0  0  0  0  0  0  0  0
  1  3  2  0
  1  4  1  0
  1  5  1  0
  2  4  1  0
  2  6  1  0
  4  9  1  0
  4 15  1  0
  5  6  1  0
  5  8  1  0
  6  7  2  3
  9 10  2  0
  9 14  1  0
 10 11  1  0
 11 12  2  0
 12 13  1  0
 13 14  2  0
 15 16  2  0
 15 20  1  0
 16 17  1  0
 17 18  2  0
 18 19  1  0
 19 20  2  0
  2 21  1  0
  7 22  1  0
  8 23  1  0
  8 24  1  0
  8 25  1  0
 10 26  1  0
 11 27  1  0
 12 28  1  0
 13 29  1  0
 14 30  1  0
 16 31  1  0
 17 32  1  0
 19 33  1  0
 20 34  1  0
 35 36  1  0
 36 37  1  0
 36 38  1  0
 36 39  1  0
 37 40  1  0
 37 41  1  0
 37 42  1  0
 38 43  1  0
 38 44  1  0
 38 45  1  0
 39 46  1  0
 39 47  1  0
 39 48  1  0
 18 35  1  0
M  END
>  <attachment_point>  (256) 
32

>  <score>  (256) 
<NA>

$$$$
4djw
     RDKit          3D

 48 51  0  0  0  0  0  0  0  0999 V2000
   22.4950   11.8750   22.5810 C   0  0  0  0  0  0  0  0  0  0  0  0
   22.5380    9.4930   22.4640 N   0  0  0  0  0  0  0  0  0  0  0  0
   22.3600   13.0630   22.3480 O   0  0  0  0  0  0  0  0  0  0  0  0
   22.3390   10.6680   21.5610 C   0  0  0  0  0  0  0  0  0  0  0  0
   22.7860   11.3350   23.8120 N   0  0  0  0  0  0  0  0  0  0  0  0
   22.7800    9.9140   23.7010 C   0  0  0  0  0  0  0  0  0  0  0  0
   22.9970    9.1110   24.7490 N   0  0  0  0  0  0  0  0  0  0  0  0
   23.0220   12.1410   25.0180 C   0  0  0  0  0  0  0  0  0  0  0  0
   20.9020   10.6270   21.0050 C   0  0  0  0  0  0  0  0  0  0  0  0
   20.2720    9.4140   20.7470 C   0  0  0  0  0  0  0  0  0  0  0  0
   18.9690    9.3760   20.2600 C   0  0  0  0  0  0  0  0  0  0  0  0
   18.2800   10.5440   20.0210 C   0  0  0  0  0  0  0  0  0  0  0  0
   18.8920   11.7530   20.2590 C   0  0  0  0  0  0  0  0  0  0  0  0
   20.1950   11.7970   20.7440 C   0  0  0  0  0  0  0  0  0  0  0  0
   23.4880   10.6920   20.5300 C   0  0  0  0  0  0  0  0  0  0  0  0
   23.2110   10.7890   19.1730 C   0  0  0  0  0  0  0  0  0  0  0  0
   24.2350   10.8650   18.2430 C   0  0  0  0  0  0  0  0  0  0  0  0
   25.5500   10.8410   18.6560 C   0  0  0  0  0  0  0  0  0  0  0  0
   25.8710   10.7460   20.0070 C   0  0  0  0  0  0  0  0  0  0  0  0
   24.8260   10.6610   20.9430 C   0  0  0  0  0  0  0  0  0  0  0  0
    0.0000    0.0000    0.0000 H   0  0  0  0  0  0  0  0  0  0  0  0
    0.0000    0.0000    0.0000 H   0  0  0  0  0  0  0  0  0  0  0  0
    0.0000    0.0000    0.0000 H   0  0  0  0  0  0  0  0  0  0  0  0
    0.0000    0.0000    0.0000 H   0  0  0  0  0  0  0  0  0  0  0  0
    0.0000    0.0000    0.0000 H   0  0  0  0  0  0  0  0  0  0  0  0
    0.0000    0.0000    0.0000 H   0  0  0  0  0  0  0  0  0  0  0  0
    0.0000    0.0000    0.0000 H   0  0  0  0  0  0  0  0  0  0  0  0
    0.0000    0.0000    0.0000 H   0  0  0  0  0  0  0  0  0  0  0  0
    0.0000    0.0000    0.0000 H   0  0  0  0  0  0  0  0  0  0  0  0
    0.0000    0.0000    0.0000 H   0  0  0  0  0  0  0  0  0  0  0  0
    0.0000    0.0000    0.0000 H   0  0  0  0  0  0  0  0  0  0  0  0
    0.0000    0.0000    0.0000 H   0  0  0  0  0  0  0  0  0  0  0  0
    0.0000    0.0000    0.0000 H   0  0  0  0  0  0  0  0  0  0  0  0
    0.0000    0.0000    0.0000 H   0  0  0  0  0  0  0  0  0  0  0  0
   12.4199    5.2698    9.0687 C   0  0  0  0  0  0  0  0  0  0  0  0
   12.9496    5.0117    7.7013 C   0  0  0  0  0  0  0  0  0  0  0  0
   13.2100    3.7222    7.3156 C   0  0  0  0  0  0  0  0  0  0  0  0
   13.7132    3.4974    6.0266 C   0  0  0  0  0  0  0  0  0  0  0  0
   13.9572    4.5161    5.1309 C   0  0  0  0  0  0  0  0  0  0  0  0
   13.6881    5.8034    5.5373 C   0  0  0  0  0  0  0  0  0  0  0  0
   13.1862    6.0434    6.8211 C   0  0  0  0  0  0  0  0  0  0  0  0
   12.8322    7.6490    7.3677 Cl  0  0  0  0  0  0  0  0  0  0  0  0
   12.0867    4.3842    9.6093 H   0  0  0  0  0  0  0  0  0  0  0  0
   11.7363    6.1402    9.1142 H   0  0  0  0  0  0  0  0  0  0  0  0
   13.0279    2.8866    8.0009 H   0  0  0  0  0  0  0  0  0  0  0  0
   13.9193    2.4960    5.7358 H   0  0  0  0  0  0  0  0  0  0  0  0
   14.3449    4.3487    4.1342 H   0  0  0  0  0  0  0  0  0  0  0  0
   13.8590    6.6543    4.8735 H   0  0  0  0  0  0  0  0  0  0  0  0
  1  3  2  0
  1  4  1  0
  1  5  1  0
  2  4  1  0
  2  6  1  0
  4  9  1  0
  4 15  1  0
  5  6  1  0
  5  8  1  0
  6  7  2  3
  9 10  2  0
  9 14  1  0
 10 11  1  0
 11 12  2  0
 12 13  1  0
 13 14  2  0
 15 16  2  0
 15 20  1  0
 16 17  1  0
 17 18  2  0
 18 19  1  0
 19 20  2  0
  2 21  1  0
  7 22  1  0
  8 23  1  0
  8 24  1  0
  8 25  1  0
 10 26  1  0
 11 27  1  0
 12 28  1  0
 13 29  1  0
 14 30  1  0
 16 31  1  0
 17 32  1  0
 19 33  1  0
 20 34  1  0
 35 36  1  0
 36 37  2  0
 37 38  1  0
 38 39  2  0
 39 40  1  0
 40 41  2  0
 41 42  1  0
 41 36  1  0
 35 43  1  0
 35 44  1  0
 37 45  1  0
 38 46  1  0
 39 47  1  0
 40 48  1  0
 18 35  1  0
M  END
>  <attachment_point>  (257) 
32

>  <score>  (257) 
<NA>

$$$$
4djw
     RDKit          3D

 48 51  0  0  0  0  0  0  0  0999 V2000
   22.4950   11.8750   22.5810 C   0  0  0  0  0  0  0  0  0  0  0  0
   22.5380    9.4930   22.4640 N   0  0  0  0  0  0  0  0  0  0  0  0
   22.3600   13.0630   22.3480 O   0  0  0  0  0  0  0  0  0  0  0  0
   22.3390   10.6680   21.5610 C   0  0  0  0  0  0  0  0  0  0  0  0
   22.7860   11.3350   23.8120 N   0  0  0  0  0  0  0  0  0  0  0  0
   22.7800    9.9140   23.7010 C   0  0  0  0  0  0  0  0  0  0  0  0
   22.9970    9.1110   24.7490 N   0  0  0  0  0  0  0  0  0  0  0  0
   23.0220   12.1410   25.0180 C   0  0  0  0  0  0  0  0  0  0  0  0
   20.9020   10.6270   21.0050 C   0  0  0  0  0  0  0  0  0  0  0  0
   20.2720    9.4140   20.7470 C   0  0  0  0  0  0  0  0  0  0  0  0
   18.9690    9.3760   20.2600 C   0  0  0  0  0  0  0  0  0  0  0  0
   18.2800   10.5440   20.0210 C   0  0  0  0  0  0  0  0  0  0  0  0
   18.8920   11.7530   20.2590 C   0  0  0  0  0  0  0  0  0  0  0  0
   20.1950   11.7970   20.7440 C   0  0  0  0  0  0  0  0  0  0  0  0
   23.4880   10.6920   20.5300 C   0  0  0  0  0  0  0  0  0  0  0  0
   23.2110   10.7890   19.1730 C   0  0  0  0  0  0  0  0  0  0  0  0
   24.2350   10.8650   18.2430 C   0  0  0  0  0  0  0  0  0  0  0  0
   25.5500   10.8410   18.6560 C   0  0  0  0  0  0  0  0  0  0  0  0
   25.8710   10.7460   20.0070 C   0  0  0  0  0  0  0  0  0  0  0  0
   24.8260   10.6610   20.9430 C   0  0  0  0  0  0  0  0  0  0  0  0
    0.0000    0.0000    0.0000 H   0  0  0  0  0  0  0  0  0  0  0  0
    0.0000    0.0000    0.0000 H   0  0  0  0  0  0  0  0  0  0  0  0
    0.0000    0.0000    0.0000 H   0  0  0  0  0  0  0  0  0  0  0  0
    0.0000    0.0000    0.0000 H   0  0  0  0  0  0  0  0  0  0  0  0
    0.0000    0.0000    0.0000 H   0  0  0  0  0  0  0  0  0  0  0  0
    0.0000    0.0000    0.0000 H   0  0  0  0  0  0  0  0  0  0  0  0
    0.0000    0.0000    0.0000 H   0  0  0  0  0  0  0  0  0  0  0  0
    0.0000    0.0000    0.0000 H   0  0  0  0  0  0  0  0  0  0  0  0
    0.0000    0.0000    0.0000 H   0  0  0  0  0  0  0  0  0  0  0  0
    0.0000    0.0000    0.0000 H   0  0  0  0  0  0  0  0  0  0  0  0
    0.0000    0.0000    0.0000 H   0  0  0  0  0  0  0  0  0  0  0  0
    0.0000    0.0000    0.0000 H   0  0  0  0  0  0  0  0  0  0  0  0
    0.0000    0.0000    0.0000 H   0  0  0  0  0  0  0  0  0  0  0  0
    0.0000    0.0000    0.0000 H   0  0  0  0  0  0  0  0  0  0  0  0
   12.4488    5.2821    9.0898 C   0  0  0  0  0  0  0  0  0  0  0  0
   11.6306    4.2485    9.4901 C   0  0  0  0  0  0  0  0  0  0  0  0
   10.5975    3.8586    8.6653 C   0  0  0  0  0  0  0  0  0  0  0  0
   10.4303    4.5264    7.4690 C   0  0  0  0  0  0  0  0  0  0  0  0
   11.2438    5.5290    7.1074 N   0  0  0  0  0  0  0  0  0  0  0  0
   12.2590    5.9318    7.8896 C   0  0  0  0  0  0  0  0  0  0  0  0
   13.0881    6.9719    7.4944 O   0  0  0  0  0  0  0  0  0  0  0  0
   12.9111    7.6529    6.2660 C   0  0  0  0  0  0  0  0  0  0  0  0
   11.7926    3.7411   10.4463 H   0  0  0  0  0  0  0  0  0  0  0  0
    9.9213    3.0351    8.9513 H   0  0  0  0  0  0  0  0  0  0  0  0
    9.5997    4.2009    6.8233 H   0  0  0  0  0  0  0  0  0  0  0  0
   11.8263    7.6576    6.0301 H   0  0  0  0  0  0  0  0  0  0  0  0
   13.4836    7.1425    5.4543 H   0  0  0  0  0  0  0  0  0  0  0  0
   13.2708    8.6952    6.3749 H   0  0  0  0  0  0  0  0  0  0  0  0
  1  3  2  0
  1  4  1  0
  1  5  1  0
  2  4  1  0
  2  6  1  0
  4  9  1  0
  4 15  1  0
  5  6  1  0
  5  8  1  0
  6  7  2  3
  9 10  2  0
  9 14  1  0
 10 11  1  0
 11 12  2  0
 12 13  1  0
 13 14  2  0
 15 16  2  0
 15 20  1  0
 16 17  1  0
 17 18  2  0
 18 19  1  0
 19 20  2  0
  2 21  1  0
  7 22  1  0
  8 23  1  0
  8 24  1  0
  8 25  1  0
 10 26  1  0
 11 27  1  0
 12 28  1  0
 13 29  1  0
 14 30  1  0
 16 31  1  0
 17 32  1  0
 19 33  1  0
 20 34  1  0
 35 36  2  0
 36 37  1  0
 37 38  2  0
 38 39  1  0
 39 40  2  0
 40 41  1  0
 41 42  1  0
 40 35  1  0
 36 43  1  0
 37 44  1  0
 38 45  1  0
 42 46  1  0
 42 47  1  0
 42 48  1  0
 18 35  1  0
M  END
>  <attachment_point>  (258) 
32

>  <score>  (258) 
<NA>

$$$$
4djw
     RDKit          3D

 48 51  0  0  0  0  0  0  0  0999 V2000
   22.4950   11.8750   22.5810 C   0  0  0  0  0  0  0  0  0  0  0  0
   22.5380    9.4930   22.4640 N   0  0  0  0  0  0  0  0  0  0  0  0
   22.3600   13.0630   22.3480 O   0  0  0  0  0  0  0  0  0  0  0  0
   22.3390   10.6680   21.5610 C   0  0  0  0  0  0  0  0  0  0  0  0
   22.7860   11.3350   23.8120 N   0  0  0  0  0  0  0  0  0  0  0  0
   22.7800    9.9140   23.7010 C   0  0  0  0  0  0  0  0  0  0  0  0
   22.9970    9.1110   24.7490 N   0  0  0  0  0  0  0  0  0  0  0  0
   23.0220   12.1410   25.0180 C   0  0  0  0  0  0  0  0  0  0  0  0
   20.9020   10.6270   21.0050 C   0  0  0  0  0  0  0  0  0  0  0  0
   20.2720    9.4140   20.7470 C   0  0  0  0  0  0  0  0  0  0  0  0
   18.9690    9.3760   20.2600 C   0  0  0  0  0  0  0  0  0  0  0  0
   18.2800   10.5440   20.0210 C   0  0  0  0  0  0  0  0  0  0  0  0
   18.8920   11.7530   20.2590 C   0  0  0  0  0  0  0  0  0  0  0  0
   20.1950   11.7970   20.7440 C   0  0  0  0  0  0  0  0  0  0  0  0
   23.4880   10.6920   20.5300 C   0  0  0  0  0  0  0  0  0  0  0  0
   23.2110   10.7890   19.1730 C   0  0  0  0  0  0  0  0  0  0  0  0
   24.2350   10.8650   18.2430 C   0  0  0  0  0  0  0  0  0  0  0  0
   25.5500   10.8410   18.6560 C   0  0  0  0  0  0  0  0  0  0  0  0
   25.8710   10.7460   20.0070 C   0  0  0  0  0  0  0  0  0  0  0  0
   24.8260   10.6610   20.9430 C   0  0  0  0  0  0  0  0  0  0  0  0
    0.0000    0.0000    0.0000 H   0  0  0  0  0  0  0  0  0  0  0  0
    0.0000    0.0000    0.0000 H   0  0  0  0  0  0  0  0  0  0  0  0
    0.0000    0.0000    0.0000 H   0  0  0  0  0  0  0  0  0  0  0  0
    0.0000    0.0000    0.0000 H   0  0  0  0  0  0  0  0  0  0  0  0
    0.0000    0.0000    0.0000 H   0  0  0  0  0  0  0  0  0  0  0  0
    0.0000    0.0000    0.0000 H   0  0  0  0  0  0  0  0  0  0  0  0
    0.0000    0.0000    0.0000 H   0  0  0  0  0  0  0  0  0  0  0  0
    0.0000    0.0000    0.0000 H   0  0  0  0  0  0  0  0  0  0  0  0
    0.0000    0.0000    0.0000 H   0  0  0  0  0  0  0  0  0  0  0  0
    0.0000    0.0000    0.0000 H   0  0  0  0  0  0  0  0  0  0  0  0
    0.0000    0.0000    0.0000 H   0  0  0  0  0  0  0  0  0  0  0  0
    0.0000    0.0000    0.0000 H   0  0  0  0  0  0  0  0  0  0  0  0
    0.0000    0.0000    0.0000 H   0  0  0  0  0  0  0  0  0  0  0  0
    0.0000    0.0000    0.0000 H   0  0  0  0  0  0  0  0  0  0  0  0
   12.4574    5.2858    9.0961 C   0  0  0  0  0  0  0  0  0  0  0  0
   11.9740    6.1212    8.1031 C   0  0  0  0  0  0  0  0  0  0  0  0
   10.9158    5.6543    7.3416 C   0  0  0  0  0  0  0  0  0  0  0  0
   10.3454    4.4154    7.5385 C   0  0  0  0  0  0  0  0  0  0  0  0
   10.8715    3.6309    8.5426 C   0  0  0  0  0  0  0  0  0  0  0  0
   11.9222    4.0379    9.3334 C   0  0  0  0  0  0  0  0  0  0  0  0
   12.4721    3.1585   10.4193 C   0  0  0  0  0  0  0  0  0  0  0  0
   13.8059    2.8837   10.1866 F   0  0  0  0  0  0  0  0  0  0  0  0
   11.7061    2.0572   10.6203 F   0  0  0  0  0  0  0  0  0  0  0  0
   12.4408    3.9335   11.5821 F   0  0  0  0  0  0  0  0  0  0  0  0
   12.4007    7.1069    7.9197 H   0  0  0  0  0  0  0  0  0  0  0  0
   10.5204    6.2841    6.5624 H   0  0  0  0  0  0  0  0  0  0  0  0
    9.5203    4.0964    6.9170 H   0  0  0  0  0  0  0  0  0  0  0  0
   10.4379    2.6474    8.7177 H   0  0  0  0  0  0  0  0  0  0  0  0
  1  3  2  0
  1  4  1  0
  1  5  1  0
  2  4  1  0
  2  6  1  0
  4  9  1  0
  4 15  1  0
  5  6  1  0
  5  8  1  0
  6  7  2  3
  9 10  2  0
  9 14  1  0
 10 11  1  0
 11 12  2  0
 12 13  1  0
 13 14  2  0
 15 16  2  0
 15 20  1  0
 16 17  1  0
 17 18  2  0
 18 19  1  0
 19 20  2  0
  2 21  1  0
  7 22  1  0
  8 23  1  0
  8 24  1  0
  8 25  1  0
 10 26  1  0
 11 27  1  0
 12 28  1  0
 13 29  1  0
 14 30  1  0
 16 31  1  0
 17 32  1  0
 19 33  1  0
 20 34  1  0
 35 36  2  0
 36 37  1  0
 37 38  2  0
 38 39  1  0
 39 40  2  0
 40 41  1  0
 41 42  1  0
 41 43  1  0
 41 44  1  0
 40 35  1  0
 36 45  1  0
 37 46  1  0
 38 47  1  0
 39 48  1  0
 18 35  1  0
M  END
>  <attachment_point>  (259) 
32

>  <score>  (259) 
<NA>

$$$$
4djw
     RDKit          3D

 55 58  0  0  0  0  0  0  0  0999 V2000
   22.4950   11.8750   22.5810 C   0  0  0  0  0  0  0  0  0  0  0  0
   22.5380    9.4930   22.4640 N   0  0  0  0  0  0  0  0  0  0  0  0
   22.3600   13.0630   22.3480 O   0  0  0  0  0  0  0  0  0  0  0  0
   22.3390   10.6680   21.5610 C   0  0  0  0  0  0  0  0  0  0  0  0
   22.7860   11.3350   23.8120 N   0  0  0  0  0  0  0  0  0  0  0  0
   22.7800    9.9140   23.7010 C   0  0  0  0  0  0  0  0  0  0  0  0
   22.9970    9.1110   24.7490 N   0  0  0  0  0  0  0  0  0  0  0  0
   23.0220   12.1410   25.0180 C   0  0  0  0  0  0  0  0  0  0  0  0
   20.9020   10.6270   21.0050 C   0  0  0  0  0  0  0  0  0  0  0  0
   20.2720    9.4140   20.7470 C   0  0  0  0  0  0  0  0  0  0  0  0
   18.9690    9.3760   20.2600 C   0  0  0  0  0  0  0  0  0  0  0  0
   18.2800   10.5440   20.0210 C   0  0  0  0  0  0  0  0  0  0  0  0
   18.8920   11.7530   20.2590 C   0  0  0  0  0  0  0  0  0  0  0  0
   20.1950   11.7970   20.7440 C   0  0  0  0  0  0  0  0  0  0  0  0
   23.4880   10.6920   20.5300 C   0  0  0  0  0  0  0  0  0  0  0  0
   23.2110   10.7890   19.1730 C   0  0  0  0  0  0  0  0  0  0  0  0
   24.2350   10.8650   18.2430 C   0  0  0  0  0  0  0  0  0  0  0  0
   25.5500   10.8410   18.6560 C   0  0  0  0  0  0  0  0  0  0  0  0
   25.8710   10.7460   20.0070 C   0  0  0  0  0  0  0  0  0  0  0  0
   24.8260   10.6610   20.9430 C   0  0  0  0  0  0  0  0  0  0  0  0
    0.0000    0.0000    0.0000 H   0  0  0  0  0  0  0  0  0  0  0  0
    0.0000    0.0000    0.0000 H   0  0  0  0  0  0  0  0  0  0  0  0
    0.0000    0.0000    0.0000 H   0  0  0  0  0  0  0  0  0  0  0  0
    0.0000    0.0000    0.0000 H   0  0  0  0  0  0  0  0  0  0  0  0
    0.0000    0.0000    0.0000 H   0  0  0  0  0  0  0  0  0  0  0  0
    0.0000    0.0000    0.0000 H   0  0  0  0  0  0  0  0  0  0  0  0
    0.0000    0.0000    0.0000 H   0  0  0  0  0  0  0  0  0  0  0  0
    0.0000    0.0000    0.0000 H   0  0  0  0  0  0  0  0  0  0  0  0
    0.0000    0.0000    0.0000 H   0  0  0  0  0  0  0  0  0  0  0  0
    0.0000    0.0000    0.0000 H   0  0  0  0  0  0  0  0  0  0  0  0
    0.0000    0.0000    0.0000 H   0  0  0  0  0  0  0  0  0  0  0  0
    0.0000    0.0000    0.0000 H   0  0  0  0  0  0  0  0  0  0  0  0
    0.0000    0.0000    0.0000 H   0  0  0  0  0  0  0  0  0  0  0  0
    0.0000    0.0000    0.0000 H   0  0  0  0  0  0  0  0  0  0  0  0
   12.4332    5.2755    9.0784 C   0  0  0  0  0  0  0  0  0  0  0  0
   11.6992    6.1008    8.4903 O   0  0  0  0  0  0  0  0  0  0  0  0
   12.2697    3.8672    9.0204 N   0  0  0  0  0  0  0  0  0  0  0  0
   11.2009    3.3045    8.2430 C   0  0  0  0  0  0  0  0  0  0  0  0
   11.3221    3.6807    6.7851 C   0  0  0  0  0  0  0  0  0  0  0  0
   10.2037    3.0871    5.9846 C   0  0  0  0  0  0  0  0  0  0  0  0
    9.0192    3.7669    5.7971 C   0  0  0  0  0  0  0  0  0  0  0  0
    7.9977    3.2007    5.0540 C   0  0  0  0  0  0  0  0  0  0  0  0
    8.1781    1.9460    4.5020 C   0  0  0  0  0  0  0  0  0  0  0  0
    9.3670    1.2780    4.6975 C   0  0  0  0  0  0  0  0  0  0  0  0
   10.3855    1.8355    5.4349 C   0  0  0  0  0  0  0  0  0  0  0  0
   12.9570    3.2650    9.5647 H   0  0  0  0  0  0  0  0  0  0  0  0
   10.2135    3.7063    8.5832 H   0  0  0  0  0  0  0  0  0  0  0  0
   11.1726    2.2023    8.3367 H   0  0  0  0  0  0  0  0  0  0  0  0
   11.3504    4.7748    6.6241 H   0  0  0  0  0  0  0  0  0  0  0  0
   12.3077    3.2552    6.4337 H   0  0  0  0  0  0  0  0  0  0  0  0
    8.8836    4.7428    6.2285 H   0  0  0  0  0  0  0  0  0  0  0  0
    7.0626    3.7343    4.9043 H   0  0  0  0  0  0  0  0  0  0  0  0
    7.3644    1.4984    3.9117 H   0  0  0  0  0  0  0  0  0  0  0  0
    9.4903    0.2880    4.2534 H   0  0  0  0  0  0  0  0  0  0  0  0
   11.3230    1.3001    5.5847 H   0  0  0  0  0  0  0  0  0  0  0  0
  1  3  2  0
  1  4  1  0
  1  5  1  0
  2  4  1  0
  2  6  1  0
  4  9  1  0
  4 15  1  0
  5  6  1  0
  5  8  1  0
  6  7  2  3
  9 10  2  0
  9 14  1  0
 10 11  1  0
 11 12  2  0
 12 13  1  0
 13 14  2  0
 15 16  2  0
 15 20  1  0
 16 17  1  0
 17 18  2  0
 18 19  1  0
 19 20  2  0
  2 21  1  0
  7 22  1  0
  8 23  1  0
  8 24  1  0
  8 25  1  0
 10 26  1  0
 11 27  1  0
 12 28  1  0
 13 29  1  0
 14 30  1  0
 16 31  1  0
 17 32  1  0
 19 33  1  0
 20 34  1  0
 35 36  2  0
 35 37  1  0
 37 38  1  0
 38 39  1  0
 39 40  1  0
 40 41  2  0
 41 42  1  0
 42 43  2  0
 43 44  1  0
 44 45  2  0
 45 40  1  0
 37 46  1  0
 38 47  1  0
 38 48  1  0
 39 49  1  0
 39 50  1  0
 41 51  1  0
 42 52  1  0
 43 53  1  0
 44 54  1  0
 45 55  1  0
 18 35  1  0
M  END
>  <attachment_point>  (260) 
32

>  <score>  (260) 
<NA>

$$$$
4djw
     RDKit          3D

 48 51  0  0  0  0  0  0  0  0999 V2000
   22.4950   11.8750   22.5810 C   0  0  0  0  0  0  0  0  0  0  0  0
   22.5380    9.4930   22.4640 N   0  0  0  0  0  0  0  0  0  0  0  0
   22.3600   13.0630   22.3480 O   0  0  0  0  0  0  0  0  0  0  0  0
   22.3390   10.6680   21.5610 C   0  0  0  0  0  0  0  0  0  0  0  0
   22.7860   11.3350   23.8120 N   0  0  0  0  0  0  0  0  0  0  0  0
   22.7800    9.9140   23.7010 C   0  0  0  0  0  0  0  0  0  0  0  0
   22.9970    9.1110   24.7490 N   0  0  0  0  0  0  0  0  0  0  0  0
   23.0220   12.1410   25.0180 C   0  0  0  0  0  0  0  0  0  0  0  0
   20.9020   10.6270   21.0050 C   0  0  0  0  0  0  0  0  0  0  0  0
   20.2720    9.4140   20.7470 C   0  0  0  0  0  0  0  0  0  0  0  0
   18.9690    9.3760   20.2600 C   0  0  0  0  0  0  0  0  0  0  0  0
   18.2800   10.5440   20.0210 C   0  0  0  0  0  0  0  0  0  0  0  0
   18.8920   11.7530   20.2590 C   0  0  0  0  0  0  0  0  0  0  0  0
   20.1950   11.7970   20.7440 C   0  0  0  0  0  0  0  0  0  0  0  0
   23.4880   10.6920   20.5300 C   0  0  0  0  0  0  0  0  0  0  0  0
   23.2110   10.7890   19.1730 C   0  0  0  0  0  0  0  0  0  0  0  0
   24.2350   10.8650   18.2430 C   0  0  0  0  0  0  0  0  0  0  0  0
   25.5500   10.8410   18.6560 C   0  0  0  0  0  0  0  0  0  0  0  0
   25.8710   10.7460   20.0070 C   0  0  0  0  0  0  0  0  0  0  0  0
   24.8260   10.6610   20.9430 C   0  0  0  0  0  0  0  0  0  0  0  0
    0.0000    0.0000    0.0000 H   0  0  0  0  0  0  0  0  0  0  0  0
    0.0000    0.0000    0.0000 H   0  0  0  0  0  0  0  0  0  0  0  0
    0.0000    0.0000    0.0000 H   0  0  0  0  0  0  0  0  0  0  0  0
    0.0000    0.0000    0.0000 H   0  0  0  0  0  0  0  0  0  0  0  0
    0.0000    0.0000    0.0000 H   0  0  0  0  0  0  0  0  0  0  0  0
    0.0000    0.0000    0.0000 H   0  0  0  0  0  0  0  0  0  0  0  0
    0.0000    0.0000    0.0000 H   0  0  0  0  0  0  0  0  0  0  0  0
    0.0000    0.0000    0.0000 H   0  0  0  0  0  0  0  0  0  0  0  0
    0.0000    0.0000    0.0000 H   0  0  0  0  0  0  0  0  0  0  0  0
    0.0000    0.0000    0.0000 H   0  0  0  0  0  0  0  0  0  0  0  0
    0.0000    0.0000    0.0000 H   0  0  0  0  0  0  0  0  0  0  0  0
    0.0000    0.0000    0.0000 H   0  0  0  0  0  0  0  0  0  0  0  0
    0.0000    0.0000    0.0000 H   0  0  0  0  0  0  0  0  0  0  0  0
    0.0000    0.0000    0.0000 H   0  0  0  0  0  0  0  0  0  0  0  0
   12.4415    5.2790    9.0845 N   0  0  0  0  0  0  0  0  0  0  0  0
   11.1794    5.2314    9.6887 C   0  0  0  0  0  0  0  0  0  0  0  0
   11.0784    5.5954   10.8870 O   0  0  0  0  0  0  0  0  0  0  0  0
   10.0192    4.7716    8.9427 C   0  0  0  0  0  0  0  0  0  0  0  0
   10.0752    4.3624    7.6290 C   0  0  0  0  0  0  0  0  0  0  0  0
    8.9491    3.9216    6.9225 C   0  0  0  0  0  0  0  0  0  0  0  0
    7.7890    3.9168    7.5998 N   0  0  0  0  0  0  0  0  0  0  0  0
    7.7203    4.3078    8.8639 C   0  0  0  0  0  0  0  0  0  0  0  0
    8.7952    4.7496    9.6044 C   0  0  0  0  0  0  0  0  0  0  0  0
   12.6558    5.0074    8.1073 H   0  0  0  0  0  0  0  0  0  0  0  0
   11.0217    4.3755    7.1054 H   0  0  0  0  0  0  0  0  0  0  0  0
    9.0522    3.6124    5.8939 H   0  0  0  0  0  0  0  0  0  0  0  0
    6.7574    4.2897    9.3815 H   0  0  0  0  0  0  0  0  0  0  0  0
    8.7015    5.0645   10.6452 H   0  0  0  0  0  0  0  0  0  0  0  0
  1  3  2  0
  1  4  1  0
  1  5  1  0
  2  4  1  0
  2  6  1  0
  4  9  1  0
  4 15  1  0
  5  6  1  0
  5  8  1  0
  6  7  2  3
  9 10  2  0
  9 14  1  0
 10 11  1  0
 11 12  2  0
 12 13  1  0
 13 14  2  0
 15 16  2  0
 15 20  1  0
 16 17  1  0
 17 18  2  0
 18 19  1  0
 19 20  2  0
  2 21  1  0
  7 22  1  0
  8 23  1  0
  8 24  1  0
  8 25  1  0
 10 26  1  0
 11 27  1  0
 12 28  1  0
 13 29  1  0
 14 30  1  0
 16 31  1  0
 17 32  1  0
 19 33  1  0
 20 34  1  0
 35 36  1  0
 36 37  2  0
 36 38  1  0
 38 39  2  0
 39 40  1  0
 40 41  2  0
 41 42  1  0
 42 43  2  0
 43 38  1  0
 35 44  1  0
 39 45  1  0
 40 46  1  0
 42 47  1  0
 43 48  1  0
 18 35  1  0
M  END
>  <attachment_point>  (261) 
32

>  <score>  (261) 
<NA>

$$$$
4djw
     RDKit          3D

 51 54  0  0  0  0  0  0  0  0999 V2000
   22.4950   11.8750   22.5810 C   0  0  0  0  0  0  0  0  0  0  0  0
   22.5380    9.4930   22.4640 N   0  0  0  0  0  0  0  0  0  0  0  0
   22.3600   13.0630   22.3480 O   0  0  0  0  0  0  0  0  0  0  0  0
   22.3390   10.6680   21.5610 C   0  0  0  0  0  0  0  0  0  0  0  0
   22.7860   11.3350   23.8120 N   0  0  0  0  0  0  0  0  0  0  0  0
   22.7800    9.9140   23.7010 C   0  0  0  0  0  0  0  0  0  0  0  0
   22.9970    9.1110   24.7490 N   0  0  0  0  0  0  0  0  0  0  0  0
   23.0220   12.1410   25.0180 C   0  0  0  0  0  0  0  0  0  0  0  0
   20.9020   10.6270   21.0050 C   0  0  0  0  0  0  0  0  0  0  0  0
   20.2720    9.4140   20.7470 C   0  0  0  0  0  0  0  0  0  0  0  0
   18.9690    9.3760   20.2600 C   0  0  0  0  0  0  0  0  0  0  0  0
   18.2800   10.5440   20.0210 C   0  0  0  0  0  0  0  0  0  0  0  0
   18.8920   11.7530   20.2590 C   0  0  0  0  0  0  0  0  0  0  0  0
   20.1950   11.7970   20.7440 C   0  0  0  0  0  0  0  0  0  0  0  0
   23.4880   10.6920   20.5300 C   0  0  0  0  0  0  0  0  0  0  0  0
   23.2110   10.7890   19.1730 C   0  0  0  0  0  0  0  0  0  0  0  0
   24.2350   10.8650   18.2430 C   0  0  0  0  0  0  0  0  0  0  0  0
   25.5500   10.8410   18.6560 C   0  0  0  0  0  0  0  0  0  0  0  0
   25.8710   10.7460   20.0070 C   0  0  0  0  0  0  0  0  0  0  0  0
   24.8260   10.6610   20.9430 C   0  0  0  0  0  0  0  0  0  0  0  0
    0.0000    0.0000    0.0000 H   0  0  0  0  0  0  0  0  0  0  0  0
    0.0000    0.0000    0.0000 H   0  0  0  0  0  0  0  0  0  0  0  0
    0.0000    0.0000    0.0000 H   0  0  0  0  0  0  0  0  0  0  0  0
    0.0000    0.0000    0.0000 H   0  0  0  0  0  0  0  0  0  0  0  0
    0.0000    0.0000    0.0000 H   0  0  0  0  0  0  0  0  0  0  0  0
    0.0000    0.0000    0.0000 H   0  0  0  0  0  0  0  0  0  0  0  0
    0.0000    0.0000    0.0000 H   0  0  0  0  0  0  0  0  0  0  0  0
    0.0000    0.0000    0.0000 H   0  0  0  0  0  0  0  0  0  0  0  0
    0.0000    0.0000    0.0000 H   0  0  0  0  0  0  0  0  0  0  0  0
    0.0000    0.0000    0.0000 H   0  0  0  0  0  0  0  0  0  0  0  0
    0.0000    0.0000    0.0000 H   0  0  0  0  0  0  0  0  0  0  0  0
    0.0000    0.0000    0.0000 H   0  0  0  0  0  0  0  0  0  0  0  0
    0.0000    0.0000    0.0000 H   0  0  0  0  0  0  0  0  0  0  0  0
    0.0000    0.0000    0.0000 H   0  0  0  0  0  0  0  0  0  0  0  0
   12.4609    5.2872    9.0987 O   0  0  0  0  0  0  0  0  0  0  0  0
   12.0095    4.1436    9.7565 C   0  0  0  0  0  0  0  0  0  0  0  0
   12.0813    2.9741    8.8019 C   0  0  0  0  0  0  0  0  0  0  0  0
   11.3252    1.7813    9.2398 C   0  0  0  0  0  0  0  0  0  0  0  0
   10.1298    1.9986    9.9658 N   0  0  0  0  0  0  0  0  0  0  0  0
   10.1762    3.0976   10.8978 C   0  0  0  0  0  0  0  0  0  0  0  0
   10.5439    4.3306   10.0890 C   0  0  0  0  0  0  0  0  0  0  0  0
   12.5817    3.9106   10.6679 H   0  0  0  0  0  0  0  0  0  0  0  0
   11.7793    3.3117    7.7825 H   0  0  0  0  0  0  0  0  0  0  0  0
   13.1590    2.6929    8.7059 H   0  0  0  0  0  0  0  0  0  0  0  0
   11.0474    1.1986    8.3115 H   0  0  0  0  0  0  0  0  0  0  0  0
   11.9996    1.0997    9.8024 H   0  0  0  0  0  0  0  0  0  0  0  0
    9.3212    2.1592    9.3233 H   0  0  0  0  0  0  0  0  0  0  0  0
   10.9538    2.8980   11.6783 H   0  0  0  0  0  0  0  0  0  0  0  0
    9.2131    3.2219   11.3815 H   0  0  0  0  0  0  0  0  0  0  0  0
   10.3178    5.2602   10.5968 H   0  0  0  0  0  0  0  0  0  0  0  0
    9.9763    4.2439    9.1272 H   0  0  0  0  0  0  0  0  0  0  0  0
  1  3  2  0
  1  4  1  0
  1  5  1  0
  2  4  1  0
  2  6  1  0
  4  9  1  0
  4 15  1  0
  5  6  1  0
  5  8  1  0
  6  7  2  3
  9 10  2  0
  9 14  1  0
 10 11  1  0
 11 12  2  0
 12 13  1  0
 13 14  2  0
 15 16  2  0
 15 20  1  0
 16 17  1  0
 17 18  2  0
 18 19  1  0
 19 20  2  0
  2 21  1  0
  7 22  1  0
  8 23  1  0
  8 24  1  0
  8 25  1  0
 10 26  1  0
 11 27  1  0
 12 28  1  0
 13 29  1  0
 14 30  1  0
 16 31  1  0
 17 32  1  0
 19 33  1  0
 20 34  1  0
 35 36  1  0
 36 37  1  0
 37 38  1  0
 38 39  1  0
 39 40  1  0
 40 41  1  0
 41 36  1  0
 36 42  1  0
 37 43  1  0
 37 44  1  0
 38 45  1  0
 38 46  1  0
 39 47  1  0
 40 48  1  0
 40 49  1  0
 41 50  1  0
 41 51  1  0
 18 35  1  0
M  END
>  <attachment_point>  (262) 
32

>  <score>  (262) 
<NA>

$$$$
4djw
     RDKit          3D

 53 56  0  0  0  0  0  0  0  0999 V2000
   22.4950   11.8750   22.5810 C   0  0  0  0  0  0  0  0  0  0  0  0
   22.5380    9.4930   22.4640 N   0  0  0  0  0  0  0  0  0  0  0  0
   22.3600   13.0630   22.3480 O   0  0  0  0  0  0  0  0  0  0  0  0
   22.3390   10.6680   21.5610 C   0  0  0  0  0  0  0  0  0  0  0  0
   22.7860   11.3350   23.8120 N   0  0  0  0  0  0  0  0  0  0  0  0
   22.7800    9.9140   23.7010 C   0  0  0  0  0  0  0  0  0  0  0  0
   22.9970    9.1110   24.7490 N   0  0  0  0  0  0  0  0  0  0  0  0
   23.0220   12.1410   25.0180 C   0  0  0  0  0  0  0  0  0  0  0  0
   20.9020   10.6270   21.0050 C   0  0  0  0  0  0  0  0  0  0  0  0
   20.2720    9.4140   20.7470 C   0  0  0  0  0  0  0  0  0  0  0  0
   18.9690    9.3760   20.2600 C   0  0  0  0  0  0  0  0  0  0  0  0
   18.2800   10.5440   20.0210 C   0  0  0  0  0  0  0  0  0  0  0  0
   18.8920   11.7530   20.2590 C   0  0  0  0  0  0  0  0  0  0  0  0
   20.1950   11.7970   20.7440 C   0  0  0  0  0  0  0  0  0  0  0  0
   23.4880   10.6920   20.5300 C   0  0  0  0  0  0  0  0  0  0  0  0
   23.2110   10.7890   19.1730 C   0  0  0  0  0  0  0  0  0  0  0  0
   24.2350   10.8650   18.2430 C   0  0  0  0  0  0  0  0  0  0  0  0
   25.5500   10.8410   18.6560 C   0  0  0  0  0  0  0  0  0  0  0  0
   25.8710   10.7460   20.0070 C   0  0  0  0  0  0  0  0  0  0  0  0
   24.8260   10.6610   20.9430 C   0  0  0  0  0  0  0  0  0  0  0  0
    0.0000    0.0000    0.0000 H   0  0  0  0  0  0  0  0  0  0  0  0
    0.0000    0.0000    0.0000 H   0  0  0  0  0  0  0  0  0  0  0  0
    0.0000    0.0000    0.0000 H   0  0  0  0  0  0  0  0  0  0  0  0
    0.0000    0.0000    0.0000 H   0  0  0  0  0  0  0  0  0  0  0  0
    0.0000    0.0000    0.0000 H   0  0  0  0  0  0  0  0  0  0  0  0
    0.0000    0.0000    0.0000 H   0  0  0  0  0  0  0  0  0  0  0  0
    0.0000    0.0000    0.0000 H   0  0  0  0  0  0  0  0  0  0  0  0
    0.0000    0.0000    0.0000 H   0  0  0  0  0  0  0  0  0  0  0  0
    0.0000    0.0000    0.0000 H   0  0  0  0  0  0  0  0  0  0  0  0
    0.0000    0.0000    0.0000 H   0  0  0  0  0  0  0  0  0  0  0  0
    0.0000    0.0000    0.0000 H   0  0  0  0  0  0  0  0  0  0  0  0
    0.0000    0.0000    0.0000 H   0  0  0  0  0  0  0  0  0  0  0  0
    0.0000    0.0000    0.0000 H   0  0  0  0  0  0  0  0  0  0  0  0
    0.0000    0.0000    0.0000 H   0  0  0  0  0  0  0  0  0  0  0  0
   12.2912    5.2152    8.9747 C   0  0  0  0  0  0  0  0  0  0  0  0
   13.0385    5.5600    7.8421 N   0  0  0  0  0  0  0  0  0  0  0  0
   14.2584    4.8556    7.7658 C   0  0  0  0  0  0  0  0  0  0  0  0
   15.0787    5.2281    6.5199 C   0  0  0  0  0  0  0  0  0  0  0  0
   16.2288    4.2406    6.7124 C   0  0  0  0  0  0  0  0  0  0  0  0
   15.5645    2.9919    7.2627 C   0  0  0  0  0  0  0  0  0  0  0  0
   14.1157    3.3692    7.5151 C   0  0  0  0  0  0  0  0  0  0  0  0
   12.4765    4.2849    9.4683 H   0  0  0  0  0  0  0  0  0  0  0  0
   11.7457    5.9878    9.4935 H   0  0  0  0  0  0  0  0  0  0  0  0
   12.5336    5.7670    6.9907 H   0  0  0  0  0  0  0  0  0  0  0  0
   14.9162    4.9736    8.6443 H   0  0  0  0  0  0  0  0  0  0  0  0
   15.4096    6.2652    6.5581 H   0  0  0  0  0  0  0  0  0  0  0  0
   14.4878    4.9620    5.6223 H   0  0  0  0  0  0  0  0  0  0  0  0
   16.9026    4.7042    7.4861 H   0  0  0  0  0  0  0  0  0  0  0  0
   16.7820    4.0559    5.7886 H   0  0  0  0  0  0  0  0  0  0  0  0
   15.6551    2.1375    6.5636 H   0  0  0  0  0  0  0  0  0  0  0  0
   16.0085    2.7709    8.2567 H   0  0  0  0  0  0  0  0  0  0  0  0
   13.5010    3.1897    6.6118 H   0  0  0  0  0  0  0  0  0  0  0  0
   13.7564    2.8241    8.4002 H   0  0  0  0  0  0  0  0  0  0  0  0
  1  3  2  0
  1  4  1  0
  1  5  1  0
  2  4  1  0
  2  6  1  0
  4  9  1  0
  4 15  1  0
  5  6  1  0
  5  8  1  0
  6  7  2  3
  9 10  2  0
  9 14  1  0
 10 11  1  0
 11 12  2  0
 12 13  1  0
 13 14  2  0
 15 16  2  0
 15 20  1  0
 16 17  1  0
 17 18  2  0
 18 19  1  0
 19 20  2  0
  2 21  1  0
  7 22  1  0
  8 23  1  0
  8 24  1  0
  8 25  1  0
 10 26  1  0
 11 27  1  0
 12 28  1  0
 13 29  1  0
 14 30  1  0
 16 31  1  0
 17 32  1  0
 19 33  1  0
 20 34  1  0
 35 36  1  0
 36 37  1  0
 37 38  1  0
 38 39  1  0
 39 40  1  0
 40 41  1  0
 41 37  1  0
 35 42  1  0
 35 43  1  0
 36 44  1  0
 37 45  1  0
 38 46  1  0
 38 47  1  0
 39 48  1  0
 39 49  1  0
 40 50  1  0
 40 51  1  0
 41 52  1  0
 41 53  1  0
 18 35  1  0
M  END
>  <attachment_point>  (263) 
32

>  <score>  (263) 
<NA>

$$$$
4djw
     RDKit          3D

 47 49  0  0  0  0  0  0  0  0999 V2000
   22.4950   11.8750   22.5810 C   0  0  0  0  0  0  0  0  0  0  0  0
   22.5380    9.4930   22.4640 N   0  0  0  0  0  0  0  0  0  0  0  0
   22.3600   13.0630   22.3480 O   0  0  0  0  0  0  0  0  0  0  0  0
   22.3390   10.6680   21.5610 C   0  0  0  0  0  0  0  0  0  0  0  0
   22.7860   11.3350   23.8120 N   0  0  0  0  0  0  0  0  0  0  0  0
   22.7800    9.9140   23.7010 C   0  0  0  0  0  0  0  0  0  0  0  0
   22.9970    9.1110   24.7490 N   0  0  0  0  0  0  0  0  0  0  0  0
   23.0220   12.1410   25.0180 C   0  0  0  0  0  0  0  0  0  0  0  0
   20.9020   10.6270   21.0050 C   0  0  0  0  0  0  0  0  0  0  0  0
   20.2720    9.4140   20.7470 C   0  0  0  0  0  0  0  0  0  0  0  0
   18.9690    9.3760   20.2600 C   0  0  0  0  0  0  0  0  0  0  0  0
   18.2800   10.5440   20.0210 C   0  0  0  0  0  0  0  0  0  0  0  0
   18.8920   11.7530   20.2590 C   0  0  0  0  0  0  0  0  0  0  0  0
   20.1950   11.7970   20.7440 C   0  0  0  0  0  0  0  0  0  0  0  0
   23.4880   10.6920   20.5300 C   0  0  0  0  0  0  0  0  0  0  0  0
   23.2110   10.7890   19.1730 C   0  0  0  0  0  0  0  0  0  0  0  0
   24.2350   10.8650   18.2430 C   0  0  0  0  0  0  0  0  0  0  0  0
   25.5500   10.8410   18.6560 C   0  0  0  0  0  0  0  0  0  0  0  0
   25.8710   10.7460   20.0070 C   0  0  0  0  0  0  0  0  0  0  0  0
   24.8260   10.6610   20.9430 C   0  0  0  0  0  0  0  0  0  0  0  0
    0.0000    0.0000    0.0000 H   0  0  0  0  0  0  0  0  0  0  0  0
    0.0000    0.0000    0.0000 H   0  0  0  0  0  0  0  0  0  0  0  0
    0.0000    0.0000    0.0000 H   0  0  0  0  0  0  0  0  0  0  0  0
    0.0000    0.0000    0.0000 H   0  0  0  0  0  0  0  0  0  0  0  0
    0.0000    0.0000    0.0000 H   0  0  0  0  0  0  0  0  0  0  0  0
    0.0000    0.0000    0.0000 H   0  0  0  0  0  0  0  0  0  0  0  0
    0.0000    0.0000    0.0000 H   0  0  0  0  0  0  0  0  0  0  0  0
    0.0000    0.0000    0.0000 H   0  0  0  0  0  0  0  0  0  0  0  0
    0.0000    0.0000    0.0000 H   0  0  0  0  0  0  0  0  0  0  0  0
    0.0000    0.0000    0.0000 H   0  0  0  0  0  0  0  0  0  0  0  0
    0.0000    0.0000    0.0000 H   0  0  0  0  0  0  0  0  0  0  0  0
    0.0000    0.0000    0.0000 H   0  0  0  0  0  0  0  0  0  0  0  0
    0.0000    0.0000    0.0000 H   0  0  0  0  0  0  0  0  0  0  0  0
    0.0000    0.0000    0.0000 H   0  0  0  0  0  0  0  0  0  0  0  0
   12.4407    5.2786    9.0839 N   0  0  0  0  0  0  0  0  0  0  0  0
   11.4585    6.3767    9.1338 C   0  0  0  0  0  0  0  0  0  0  0  0
   11.0565    6.6049   10.5836 C   0  0  0  0  0  0  0  0  0  0  0  0
   10.4863    5.4823   11.1548 O   0  0  0  0  0  0  0  0  0  0  0  0
    9.3394    5.0659   10.4995 C   0  0  0  0  0  0  0  0  0  0  0  0
   12.0213    4.5047    9.6379 H   0  0  0  0  0  0  0  0  0  0  0  0
   10.6191    6.1835    8.4718 H   0  0  0  0  0  0  0  0  0  0  0  0
   11.9939    7.2673    8.7853 H   0  0  0  0  0  0  0  0  0  0  0  0
   12.0258    6.7743   11.1356 H   0  0  0  0  0  0  0  0  0  0  0  0
   10.4736    7.5136   10.7016 H   0  0  0  0  0  0  0  0  0  0  0  0
    8.9782    4.1557   11.0562 H   0  0  0  0  0  0  0  0  0  0  0  0
    8.5149    5.7951   10.5688 H   0  0  0  0  0  0  0  0  0  0  0  0
    9.5638    4.7471    9.4645 H   0  0  0  0  0  0  0  0  0  0  0  0
  1  3  2  0
  1  4  1  0
  1  5  1  0
  2  4  1  0
  2  6  1  0
  4  9  1  0
  4 15  1  0
  5  6  1  0
  5  8  1  0
  6  7  2  3
  9 10  2  0
  9 14  1  0
 10 11  1  0
 11 12  2  0
 12 13  1  0
 13 14  2  0
 15 16  2  0
 15 20  1  0
 16 17  1  0
 17 18  2  0
 18 19  1  0
 19 20  2  0
  2 21  1  0
  7 22  1  0
  8 23  1  0
  8 24  1  0
  8 25  1  0
 10 26  1  0
 11 27  1  0
 12 28  1  0
 13 29  1  0
 14 30  1  0
 16 31  1  0
 17 32  1  0
 19 33  1  0
 20 34  1  0
 35 36  1  0
 36 37  1  0
 37 38  1  0
 38 39  1  0
 35 40  1  0
 36 41  1  0
 36 42  1  0
 37 43  1  0
 37 44  1  0
 39 45  1  0
 39 46  1  0
 39 47  1  0
 18 35  1  0
M  END
>  <attachment_point>  (264) 
32

>  <score>  (264) 
<NA>

$$$$
4djw
     RDKit          3D

 43 45  0  0  0  0  0  0  0  0999 V2000
   22.4950   11.8750   22.5810 C   0  0  0  0  0  0  0  0  0  0  0  0
   22.5380    9.4930   22.4640 N   0  0  0  0  0  0  0  0  0  0  0  0
   22.3600   13.0630   22.3480 O   0  0  0  0  0  0  0  0  0  0  0  0
   22.3390   10.6680   21.5610 C   0  0  0  0  0  0  0  0  0  0  0  0
   22.7860   11.3350   23.8120 N   0  0  0  0  0  0  0  0  0  0  0  0
   22.7800    9.9140   23.7010 C   0  0  0  0  0  0  0  0  0  0  0  0
   22.9970    9.1110   24.7490 N   0  0  0  0  0  0  0  0  0  0  0  0
   23.0220   12.1410   25.0180 C   0  0  0  0  0  0  0  0  0  0  0  0
   20.9020   10.6270   21.0050 C   0  0  0  0  0  0  0  0  0  0  0  0
   20.2720    9.4140   20.7470 C   0  0  0  0  0  0  0  0  0  0  0  0
   18.9690    9.3760   20.2600 C   0  0  0  0  0  0  0  0  0  0  0  0
   18.2800   10.5440   20.0210 C   0  0  0  0  0  0  0  0  0  0  0  0
   18.8920   11.7530   20.2590 C   0  0  0  0  0  0  0  0  0  0  0  0
   20.1950   11.7970   20.7440 C   0  0  0  0  0  0  0  0  0  0  0  0
   23.4880   10.6920   20.5300 C   0  0  0  0  0  0  0  0  0  0  0  0
   23.2110   10.7890   19.1730 C   0  0  0  0  0  0  0  0  0  0  0  0
   24.2350   10.8650   18.2430 C   0  0  0  0  0  0  0  0  0  0  0  0
   25.5500   10.8410   18.6560 C   0  0  0  0  0  0  0  0  0  0  0  0
   25.8710   10.7460   20.0070 C   0  0  0  0  0  0  0  0  0  0  0  0
   24.8260   10.6610   20.9430 C   0  0  0  0  0  0  0  0  0  0  0  0
    0.0000    0.0000    0.0000 H   0  0  0  0  0  0  0  0  0  0  0  0
    0.0000    0.0000    0.0000 H   0  0  0  0  0  0  0  0  0  0  0  0
    0.0000    0.0000    0.0000 H   0  0  0  0  0  0  0  0  0  0  0  0
    0.0000    0.0000    0.0000 H   0  0  0  0  0  0  0  0  0  0  0  0
    0.0000    0.0000    0.0000 H   0  0  0  0  0  0  0  0  0  0  0  0
    0.0000    0.0000    0.0000 H   0  0  0  0  0  0  0  0  0  0  0  0
    0.0000    0.0000    0.0000 H   0  0  0  0  0  0  0  0  0  0  0  0
    0.0000    0.0000    0.0000 H   0  0  0  0  0  0  0  0  0  0  0  0
    0.0000    0.0000    0.0000 H   0  0  0  0  0  0  0  0  0  0  0  0
    0.0000    0.0000    0.0000 H   0  0  0  0  0  0  0  0  0  0  0  0
    0.0000    0.0000    0.0000 H   0  0  0  0  0  0  0  0  0  0  0  0
    0.0000    0.0000    0.0000 H   0  0  0  0  0  0  0  0  0  0  0  0
    0.0000    0.0000    0.0000 H   0  0  0  0  0  0  0  0  0  0  0  0
    0.0000    0.0000    0.0000 H   0  0  0  0  0  0  0  0  0  0  0  0
   12.4684    5.2904    9.1042 C   0  0  0  0  0  0  0  0  0  0  0  0
   11.7283    4.4145    9.5654 O   0  0  0  0  0  0  0  0  0  0  0  0
   12.1708    5.7948    7.7405 C   0  0  0  0  0  0  0  0  0  0  0  0
   12.0090    4.5491    6.8667 C   0  0  0  0  0  0  0  0  0  0  0  0
   11.2179    6.3702    7.7966 H   0  0  0  0  0  0  0  0  0  0  0  0
   13.0142    6.3704    7.3216 H   0  0  0  0  0  0  0  0  0  0  0  0
   11.2082    3.8903    7.2328 H   0  0  0  0  0  0  0  0  0  0  0  0
   13.0181    4.0370    6.9582 H   0  0  0  0  0  0  0  0  0  0  0  0
   11.8727    4.9029    5.8514 H   0  0  0  0  0  0  0  0  0  0  0  0
  1  3  2  0
  1  4  1  0
  1  5  1  0
  2  4  1  0
  2  6  1  0
  4  9  1  0
  4 15  1  0
  5  6  1  0
  5  8  1  0
  6  7  2  3
  9 10  2  0
  9 14  1  0
 10 11  1  0
 11 12  2  0
 12 13  1  0
 13 14  2  0
 15 16  2  0
 15 20  1  0
 16 17  1  0
 17 18  2  0
 18 19  1  0
 19 20  2  0
  2 21  1  0
  7 22  1  0
  8 23  1  0
  8 24  1  0
  8 25  1  0
 10 26  1  0
 11 27  1  0
 12 28  1  0
 13 29  1  0
 14 30  1  0
 16 31  1  0
 17 32  1  0
 19 33  1  0
 20 34  1  0
 35 36  2  0
 35 37  1  0
 37 38  1  0
 37 39  1  0
 37 40  1  0
 38 41  1  0
 38 42  1  0
 38 43  1  0
 18 35  1  0
M  END
>  <attachment_point>  (265) 
32

>  <score>  (265) 
<NA>

$$$$
4djw
     RDKit          3D

 45 48  0  0  0  0  0  0  0  0999 V2000
   22.4950   11.8750   22.5810 C   0  0  0  0  0  0  0  0  0  0  0  0
   22.5380    9.4930   22.4640 N   0  0  0  0  0  0  0  0  0  0  0  0
   22.3600   13.0630   22.3480 O   0  0  0  0  0  0  0  0  0  0  0  0
   22.3390   10.6680   21.5610 C   0  0  0  0  0  0  0  0  0  0  0  0
   22.7860   11.3350   23.8120 N   0  0  0  0  0  0  0  0  0  0  0  0
   22.7800    9.9140   23.7010 C   0  0  0  0  0  0  0  0  0  0  0  0
   22.9970    9.1110   24.7490 N   0  0  0  0  0  0  0  0  0  0  0  0
   23.0220   12.1410   25.0180 C   0  0  0  0  0  0  0  0  0  0  0  0
   20.9020   10.6270   21.0050 C   0  0  0  0  0  0  0  0  0  0  0  0
   20.2720    9.4140   20.7470 C   0  0  0  0  0  0  0  0  0  0  0  0
   18.9690    9.3760   20.2600 C   0  0  0  0  0  0  0  0  0  0  0  0
   18.2800   10.5440   20.0210 C   0  0  0  0  0  0  0  0  0  0  0  0
   18.8920   11.7530   20.2590 C   0  0  0  0  0  0  0  0  0  0  0  0
   20.1950   11.7970   20.7440 C   0  0  0  0  0  0  0  0  0  0  0  0
   23.4880   10.6920   20.5300 C   0  0  0  0  0  0  0  0  0  0  0  0
   23.2110   10.7890   19.1730 C   0  0  0  0  0  0  0  0  0  0  0  0
   24.2350   10.8650   18.2430 C   0  0  0  0  0  0  0  0  0  0  0  0
   25.5500   10.8410   18.6560 C   0  0  0  0  0  0  0  0  0  0  0  0
   25.8710   10.7460   20.0070 C   0  0  0  0  0  0  0  0  0  0  0  0
   24.8260   10.6610   20.9430 C   0  0  0  0  0  0  0  0  0  0  0  0
    0.0000    0.0000    0.0000 H   0  0  0  0  0  0  0  0  0  0  0  0
    0.0000    0.0000    0.0000 H   0  0  0  0  0  0  0  0  0  0  0  0
    0.0000    0.0000    0.0000 H   0  0  0  0  0  0  0  0  0  0  0  0
    0.0000    0.0000    0.0000 H   0  0  0  0  0  0  0  0  0  0  0  0
    0.0000    0.0000    0.0000 H   0  0  0  0  0  0  0  0  0  0  0  0
    0.0000    0.0000    0.0000 H   0  0  0  0  0  0  0  0  0  0  0  0
    0.0000    0.0000    0.0000 H   0  0  0  0  0  0  0  0  0  0  0  0
    0.0000    0.0000    0.0000 H   0  0  0  0  0  0  0  0  0  0  0  0
    0.0000    0.0000    0.0000 H   0  0  0  0  0  0  0  0  0  0  0  0
    0.0000    0.0000    0.0000 H   0  0  0  0  0  0  0  0  0  0  0  0
    0.0000    0.0000    0.0000 H   0  0  0  0  0  0  0  0  0  0  0  0
    0.0000    0.0000    0.0000 H   0  0  0  0  0  0  0  0  0  0  0  0
    0.0000    0.0000    0.0000 H   0  0  0  0  0  0  0  0  0  0  0  0
    0.0000    0.0000    0.0000 H   0  0  0  0  0  0  0  0  0  0  0  0
   12.4512    5.2831    9.0916 C   0  0  0  0  0  0  0  0  0  0  0  0
   12.4768    4.1675    8.2764 C   0  0  0  0  0  0  0  0  0  0  0  0
   11.2142    4.1139    7.7112 C   0  0  0  0  0  0  0  0  0  0  0  0
   10.5241    5.1564    8.1956 N   0  0  0  0  0  0  0  0  0  0  0  0
   11.2408    5.8755    9.0263 N   0  0  0  0  0  0  0  0  0  0  0  0
   10.8258    7.0849    9.7488 C   0  0  0  0  0  0  0  0  0  0  0  0
   13.2994    3.4828    8.1120 H   0  0  0  0  0  0  0  0  0  0  0  0
   10.9209    3.3403    7.0165 H   0  0  0  0  0  0  0  0  0  0  0  0
    9.9568    6.9082   10.3907 H   0  0  0  0  0  0  0  0  0  0  0  0
   11.6960    7.4510   10.3374 H   0  0  0  0  0  0  0  0  0  0  0  0
   10.5989    7.9067    9.0123 H   0  0  0  0  0  0  0  0  0  0  0  0
  1  3  2  0
  1  4  1  0
  1  5  1  0
  2  4  1  0
  2  6  1  0
  4  9  1  0
  4 15  1  0
  5  6  1  0
  5  8  1  0
  6  7  2  3
  9 10  2  0
  9 14  1  0
 10 11  1  0
 11 12  2  0
 12 13  1  0
 13 14  2  0
 15 16  2  0
 15 20  1  0
 16 17  1  0
 17 18  2  0
 18 19  1  0
 19 20  2  0
  2 21  1  0
  7 22  1  0
  8 23  1  0
  8 24  1  0
  8 25  1  0
 10 26  1  0
 11 27  1  0
 12 28  1  0
 13 29  1  0
 14 30  1  0
 16 31  1  0
 17 32  1  0
 19 33  1  0
 20 34  1  0
 35 36  2  0
 36 37  1  0
 37 38  2  0
 38 39  1  0
 39 40  1  0
 39 35  1  0
 36 41  1  0
 37 42  1  0
 40 43  1  0
 40 44  1  0
 40 45  1  0
 18 35  1  0
M  END
>  <attachment_point>  (266) 
32

>  <score>  (266) 
<NA>

$$$$
4djw
     RDKit          3D

 49 52  0  0  0  0  0  0  0  0999 V2000
   22.4950   11.8750   22.5810 C   0  0  0  0  0  0  0  0  0  0  0  0
   22.5380    9.4930   22.4640 N   0  0  0  0  0  0  0  0  0  0  0  0
   22.3600   13.0630   22.3480 O   0  0  0  0  0  0  0  0  0  0  0  0
   22.3390   10.6680   21.5610 C   0  0  0  0  0  0  0  0  0  0  0  0
   22.7860   11.3350   23.8120 N   0  0  0  0  0  0  0  0  0  0  0  0
   22.7800    9.9140   23.7010 C   0  0  0  0  0  0  0  0  0  0  0  0
   22.9970    9.1110   24.7490 N   0  0  0  0  0  0  0  0  0  0  0  0
   23.0220   12.1410   25.0180 C   0  0  0  0  0  0  0  0  0  0  0  0
   20.9020   10.6270   21.0050 C   0  0  0  0  0  0  0  0  0  0  0  0
   20.2720    9.4140   20.7470 C   0  0  0  0  0  0  0  0  0  0  0  0
   18.9690    9.3760   20.2600 C   0  0  0  0  0  0  0  0  0  0  0  0
   18.2800   10.5440   20.0210 C   0  0  0  0  0  0  0  0  0  0  0  0
   18.8920   11.7530   20.2590 C   0  0  0  0  0  0  0  0  0  0  0  0
   20.1950   11.7970   20.7440 C   0  0  0  0  0  0  0  0  0  0  0  0
   23.4880   10.6920   20.5300 C   0  0  0  0  0  0  0  0  0  0  0  0
   23.2110   10.7890   19.1730 C   0  0  0  0  0  0  0  0  0  0  0  0
   24.2350   10.8650   18.2430 C   0  0  0  0  0  0  0  0  0  0  0  0
   25.5500   10.8410   18.6560 C   0  0  0  0  0  0  0  0  0  0  0  0
   25.8710   10.7460   20.0070 C   0  0  0  0  0  0  0  0  0  0  0  0
   24.8260   10.6610   20.9430 C   0  0  0  0  0  0  0  0  0  0  0  0
    0.0000    0.0000    0.0000 H   0  0  0  0  0  0  0  0  0  0  0  0
    0.0000    0.0000    0.0000 H   0  0  0  0  0  0  0  0  0  0  0  0
    0.0000    0.0000    0.0000 H   0  0  0  0  0  0  0  0  0  0  0  0
    0.0000    0.0000    0.0000 H   0  0  0  0  0  0  0  0  0  0  0  0
    0.0000    0.0000    0.0000 H   0  0  0  0  0  0  0  0  0  0  0  0
    0.0000    0.0000    0.0000 H   0  0  0  0  0  0  0  0  0  0  0  0
    0.0000    0.0000    0.0000 H   0  0  0  0  0  0  0  0  0  0  0  0
    0.0000    0.0000    0.0000 H   0  0  0  0  0  0  0  0  0  0  0  0
    0.0000    0.0000    0.0000 H   0  0  0  0  0  0  0  0  0  0  0  0
    0.0000    0.0000    0.0000 H   0  0  0  0  0  0  0  0  0  0  0  0
    0.0000    0.0000    0.0000 H   0  0  0  0  0  0  0  0  0  0  0  0
    0.0000    0.0000    0.0000 H   0  0  0  0  0  0  0  0  0  0  0  0
    0.0000    0.0000    0.0000 H   0  0  0  0  0  0  0  0  0  0  0  0
    0.0000    0.0000    0.0000 H   0  0  0  0  0  0  0  0  0  0  0  0
   12.4274    5.2730    9.0742 C   0  0  0  0  0  0  0  0  0  0  0  0
   12.7145    4.9107    7.9246 O   0  0  0  0  0  0  0  0  0  0  0  0
   11.1026    5.2182    9.5313 N   0  0  0  0  0  0  0  0  0  0  0  0
   10.0221    4.7545    8.7274 C   0  0  0  0  0  0  0  0  0  0  0  0
    9.2722    5.5831    7.9182 C   0  0  0  0  0  0  0  0  0  0  0  0
    8.2226    5.0876    7.1472 C   0  0  0  0  0  0  0  0  0  0  0  0
    7.8988    3.7467    7.1690 C   0  0  0  0  0  0  0  0  0  0  0  0
    6.5760    3.1141    6.1991 Cl  0  0  0  0  0  0  0  0  0  0  0  0
    8.6435    2.9125    7.9752 C   0  0  0  0  0  0  0  0  0  0  0  0
    9.6840    3.4172    8.7365 C   0  0  0  0  0  0  0  0  0  0  0  0
   10.9255    5.5424   10.5229 H   0  0  0  0  0  0  0  0  0  0  0  0
    9.5342    6.6399    7.9069 H   0  0  0  0  0  0  0  0  0  0  0  0
    7.6503    5.7528    6.5225 H   0  0  0  0  0  0  0  0  0  0  0  0
    8.3975    1.8523    8.0007 H   0  0  0  0  0  0  0  0  0  0  0  0
   10.2777    2.7482    9.3801 H   0  0  0  0  0  0  0  0  0  0  0  0
  1  3  2  0
  1  4  1  0
  1  5  1  0
  2  4  1  0
  2  6  1  0
  4  9  1  0
  4 15  1  0
  5  6  1  0
  5  8  1  0
  6  7  2  3
  9 10  2  0
  9 14  1  0
 10 11  1  0
 11 12  2  0
 12 13  1  0
 13 14  2  0
 15 16  2  0
 15 20  1  0
 16 17  1  0
 17 18  2  0
 18 19  1  0
 19 20  2  0
  2 21  1  0
  7 22  1  0
  8 23  1  0
  8 24  1  0
  8 25  1  0
 10 26  1  0
 11 27  1  0
 12 28  1  0
 13 29  1  0
 14 30  1  0
 16 31  1  0
 17 32  1  0
 19 33  1  0
 20 34  1  0
 35 36  2  0
 35 37  1  0
 37 38  1  0
 38 39  2  0
 39 40  1  0
 40 41  2  0
 41 42  1  0
 41 43  1  0
 43 44  2  0
 44 38  1  0
 37 45  1  0
 39 46  1  0
 40 47  1  0
 43 48  1  0
 44 49  1  0
 18 35  1  0
M  END
>  <attachment_point>  (267) 
32

>  <score>  (267) 
<NA>

$$$$
4djw
     RDKit          3D

 41 43  0  0  0  0  0  0  0  0999 V2000
   22.4950   11.8750   22.5810 C   0  0  0  0  0  0  0  0  0  0  0  0
   22.5380    9.4930   22.4640 N   0  0  0  0  0  0  0  0  0  0  0  0
   22.3600   13.0630   22.3480 O   0  0  0  0  0  0  0  0  0  0  0  0
   22.3390   10.6680   21.5610 C   0  0  0  0  0  0  0  0  0  0  0  0
   22.7860   11.3350   23.8120 N   0  0  0  0  0  0  0  0  0  0  0  0
   22.7800    9.9140   23.7010 C   0  0  0  0  0  0  0  0  0  0  0  0
   22.9970    9.1110   24.7490 N   0  0  0  0  0  0  0  0  0  0  0  0
   23.0220   12.1410   25.0180 C   0  0  0  0  0  0  0  0  0  0  0  0
   20.9020   10.6270   21.0050 C   0  0  0  0  0  0  0  0  0  0  0  0
   20.2720    9.4140   20.7470 C   0  0  0  0  0  0  0  0  0  0  0  0
   18.9690    9.3760   20.2600 C   0  0  0  0  0  0  0  0  0  0  0  0
   18.2800   10.5440   20.0210 C   0  0  0  0  0  0  0  0  0  0  0  0
   18.8920   11.7530   20.2590 C   0  0  0  0  0  0  0  0  0  0  0  0
   20.1950   11.7970   20.7440 C   0  0  0  0  0  0  0  0  0  0  0  0
   23.4880   10.6920   20.5300 C   0  0  0  0  0  0  0  0  0  0  0  0
   23.2110   10.7890   19.1730 C   0  0  0  0  0  0  0  0  0  0  0  0
   24.2350   10.8650   18.2430 C   0  0  0  0  0  0  0  0  0  0  0  0
   25.5500   10.8410   18.6560 C   0  0  0  0  0  0  0  0  0  0  0  0
   25.8710   10.7460   20.0070 C   0  0  0  0  0  0  0  0  0  0  0  0
   24.8260   10.6610   20.9430 C   0  0  0  0  0  0  0  0  0  0  0  0
    0.0000    0.0000    0.0000 H   0  0  0  0  0  0  0  0  0  0  0  0
    0.0000    0.0000    0.0000 H   0  0  0  0  0  0  0  0  0  0  0  0
    0.0000    0.0000    0.0000 H   0  0  0  0  0  0  0  0  0  0  0  0
    0.0000    0.0000    0.0000 H   0  0  0  0  0  0  0  0  0  0  0  0
    0.0000    0.0000    0.0000 H   0  0  0  0  0  0  0  0  0  0  0  0
    0.0000    0.0000    0.0000 H   0  0  0  0  0  0  0  0  0  0  0  0
    0.0000    0.0000    0.0000 H   0  0  0  0  0  0  0  0  0  0  0  0
    0.0000    0.0000    0.0000 H   0  0  0  0  0  0  0  0  0  0  0  0
    0.0000    0.0000    0.0000 H   0  0  0  0  0  0  0  0  0  0  0  0
    0.0000    0.0000    0.0000 H   0  0  0  0  0  0  0  0  0  0  0  0
    0.0000    0.0000    0.0000 H   0  0  0  0  0  0  0  0  0  0  0  0
    0.0000    0.0000    0.0000 H   0  0  0  0  0  0  0  0  0  0  0  0
    0.0000    0.0000    0.0000 H   0  0  0  0  0  0  0  0  0  0  0  0
    0.0000    0.0000    0.0000 H   0  0  0  0  0  0  0  0  0  0  0  0
   12.3396    5.2358    9.0101 O   0  0  0  0  0  0  0  0  0  0  0  0
   11.2878    5.6882    9.7513 C   0  0  0  0  0  0  0  0  0  0  0  0
    9.8746    5.4560    9.3367 C   0  0  0  0  0  0  0  0  0  0  0  0
   11.4325    6.3247   10.8226 O   0  0  0  0  0  0  0  0  0  0  0  0
    9.7862    5.1089    8.2937 H   0  0  0  0  0  0  0  0  0  0  0  0
    9.3232    6.4004    9.5051 H   0  0  0  0  0  0  0  0  0  0  0  0
    9.4563    4.7179   10.0480 H   0  0  0  0  0  0  0  0  0  0  0  0
  1  3  2  0
  1  4  1  0
  1  5  1  0
  2  4  1  0
  2  6  1  0
  4  9  1  0
  4 15  1  0
  5  6  1  0
  5  8  1  0
  6  7  2  3
  9 10  2  0
  9 14  1  0
 10 11  1  0
 11 12  2  0
 12 13  1  0
 13 14  2  0
 15 16  2  0
 15 20  1  0
 16 17  1  0
 17 18  2  0
 18 19  1  0
 19 20  2  0
  2 21  1  0
  7 22  1  0
  8 23  1  0
  8 24  1  0
  8 25  1  0
 10 26  1  0
 11 27  1  0
 12 28  1  0
 13 29  1  0
 14 30  1  0
 16 31  1  0
 17 32  1  0
 19 33  1  0
 20 34  1  0
 35 36  1  0
 36 37  1  0
 36 38  2  0
 37 39  1  0
 37 40  1  0
 37 41  1  0
 18 35  1  0
M  END
>  <attachment_point>  (268) 
32

>  <score>  (268) 
<NA>

$$$$
4djw
     RDKit          3D

 44 47  0  0  0  0  0  0  0  0999 V2000
   22.4950   11.8750   22.5810 C   0  0  0  0  0  0  0  0  0  0  0  0
   22.5380    9.4930   22.4640 N   0  0  0  0  0  0  0  0  0  0  0  0
   22.3600   13.0630   22.3480 O   0  0  0  0  0  0  0  0  0  0  0  0
   22.3390   10.6680   21.5610 C   0  0  0  0  0  0  0  0  0  0  0  0
   22.7860   11.3350   23.8120 N   0  0  0  0  0  0  0  0  0  0  0  0
   22.7800    9.9140   23.7010 C   0  0  0  0  0  0  0  0  0  0  0  0
   22.9970    9.1110   24.7490 N   0  0  0  0  0  0  0  0  0  0  0  0
   23.0220   12.1410   25.0180 C   0  0  0  0  0  0  0  0  0  0  0  0
   20.9020   10.6270   21.0050 C   0  0  0  0  0  0  0  0  0  0  0  0
   20.2720    9.4140   20.7470 C   0  0  0  0  0  0  0  0  0  0  0  0
   18.9690    9.3760   20.2600 C   0  0  0  0  0  0  0  0  0  0  0  0
   18.2800   10.5440   20.0210 C   0  0  0  0  0  0  0  0  0  0  0  0
   18.8920   11.7530   20.2590 C   0  0  0  0  0  0  0  0  0  0  0  0
   20.1950   11.7970   20.7440 C   0  0  0  0  0  0  0  0  0  0  0  0
   23.4880   10.6920   20.5300 C   0  0  0  0  0  0  0  0  0  0  0  0
   23.2110   10.7890   19.1730 C   0  0  0  0  0  0  0  0  0  0  0  0
   24.2350   10.8650   18.2430 C   0  0  0  0  0  0  0  0  0  0  0  0
   25.5500   10.8410   18.6560 C   0  0  0  0  0  0  0  0  0  0  0  0
   25.8710   10.7460   20.0070 C   0  0  0  0  0  0  0  0  0  0  0  0
   24.8260   10.6610   20.9430 C   0  0  0  0  0  0  0  0  0  0  0  0
    0.0000    0.0000    0.0000 H   0  0  0  0  0  0  0  0  0  0  0  0
    0.0000    0.0000    0.0000 H   0  0  0  0  0  0  0  0  0  0  0  0
    0.0000    0.0000    0.0000 H   0  0  0  0  0  0  0  0  0  0  0  0
    0.0000    0.0000    0.0000 H   0  0  0  0  0  0  0  0  0  0  0  0
    0.0000    0.0000    0.0000 H   0  0  0  0  0  0  0  0  0  0  0  0
    0.0000    0.0000    0.0000 H   0  0  0  0  0  0  0  0  0  0  0  0
    0.0000    0.0000    0.0000 H   0  0  0  0  0  0  0  0  0  0  0  0
    0.0000    0.0000    0.0000 H   0  0  0  0  0  0  0  0  0  0  0  0
    0.0000    0.0000    0.0000 H   0  0  0  0  0  0  0  0  0  0  0  0
    0.0000    0.0000    0.0000 H   0  0  0  0  0  0  0  0  0  0  0  0
    0.0000    0.0000    0.0000 H   0  0  0  0  0  0  0  0  0  0  0  0
    0.0000    0.0000    0.0000 H   0  0  0  0  0  0  0  0  0  0  0  0
    0.0000    0.0000    0.0000 H   0  0  0  0  0  0  0  0  0  0  0  0
    0.0000    0.0000    0.0000 H   0  0  0  0  0  0  0  0  0  0  0  0
   12.4127    5.2668    9.0634 C   0  0  0  0  0  0  0  0  0  0  0  0
   11.6133    6.2533    8.5387 C   0  0  0  0  0  0  0  0  0  0  0  0
   10.5287    5.8486    7.7493 C   0  0  0  0  0  0  0  0  0  0  0  0
   10.3409    4.4983    7.5558 C   0  0  0  0  0  0  0  0  0  0  0  0
    8.9875    3.9569    6.5691 Cl  0  0  0  0  0  0  0  0  0  0  0  0
   11.1630    3.5824    8.0997 N   0  0  0  0  0  0  0  0  0  0  0  0
   12.2288    3.9340    8.8735 C   0  0  0  0  0  0  0  0  0  0  0  0
   11.7904    7.3176    8.7119 H   0  0  0  0  0  0  0  0  0  0  0  0
    9.8800    6.5963    7.3210 H   0  0  0  0  0  0  0  0  0  0  0  0
   12.8786    3.1909    9.3026 H   0  0  0  0  0  0  0  0  0  0  0  0
  1  3  2  0
  1  4  1  0
  1  5  1  0
  2  4  1  0
  2  6  1  0
  4  9  1  0
  4 15  1  0
  5  6  1  0
  5  8  1  0
  6  7  2  3
  9 10  2  0
  9 14  1  0
 10 11  1  0
 11 12  2  0
 12 13  1  0
 13 14  2  0
 15 16  2  0
 15 20  1  0
 16 17  1  0
 17 18  2  0
 18 19  1  0
 19 20  2  0
  2 21  1  0
  7 22  1  0
  8 23  1  0
  8 24  1  0
  8 25  1  0
 10 26  1  0
 11 27  1  0
 12 28  1  0
 13 29  1  0
 14 30  1  0
 16 31  1  0
 17 32  1  0
 19 33  1  0
 20 34  1  0
 35 36  2  0
 36 37  1  0
 37 38  2  0
 38 39  1  0
 38 40  1  0
 40 41  2  0
 41 35  1  0
 36 42  1  0
 37 43  1  0
 41 44  1  0
 18 35  1  0
M  END
>  <attachment_point>  (269) 
32

>  <score>  (269) 
<NA>

$$$$
4djw
     RDKit          3D

 52 54  0  0  0  0  0  0  0  0999 V2000
   22.4950   11.8750   22.5810 C   0  0  0  0  0  0  0  0  0  0  0  0
   22.5380    9.4930   22.4640 N   0  0  0  0  0  0  0  0  0  0  0  0
   22.3600   13.0630   22.3480 O   0  0  0  0  0  0  0  0  0  0  0  0
   22.3390   10.6680   21.5610 C   0  0  0  0  0  0  0  0  0  0  0  0
   22.7860   11.3350   23.8120 N   0  0  0  0  0  0  0  0  0  0  0  0
   22.7800    9.9140   23.7010 C   0  0  0  0  0  0  0  0  0  0  0  0
   22.9970    9.1110   24.7490 N   0  0  0  0  0  0  0  0  0  0  0  0
   23.0220   12.1410   25.0180 C   0  0  0  0  0  0  0  0  0  0  0  0
   20.9020   10.6270   21.0050 C   0  0  0  0  0  0  0  0  0  0  0  0
   20.2720    9.4140   20.7470 C   0  0  0  0  0  0  0  0  0  0  0  0
   18.9690    9.3760   20.2600 C   0  0  0  0  0  0  0  0  0  0  0  0
   18.2800   10.5440   20.0210 C   0  0  0  0  0  0  0  0  0  0  0  0
   18.8920   11.7530   20.2590 C   0  0  0  0  0  0  0  0  0  0  0  0
   20.1950   11.7970   20.7440 C   0  0  0  0  0  0  0  0  0  0  0  0
   23.4880   10.6920   20.5300 C   0  0  0  0  0  0  0  0  0  0  0  0
   23.2110   10.7890   19.1730 C   0  0  0  0  0  0  0  0  0  0  0  0
   24.2350   10.8650   18.2430 C   0  0  0  0  0  0  0  0  0  0  0  0
   25.5500   10.8410   18.6560 C   0  0  0  0  0  0  0  0  0  0  0  0
   25.8710   10.7460   20.0070 C   0  0  0  0  0  0  0  0  0  0  0  0
   24.8260   10.6610   20.9430 C   0  0  0  0  0  0  0  0  0  0  0  0
    0.0000    0.0000    0.0000 H   0  0  0  0  0  0  0  0  0  0  0  0
    0.0000    0.0000    0.0000 H   0  0  0  0  0  0  0  0  0  0  0  0
    0.0000    0.0000    0.0000 H   0  0  0  0  0  0  0  0  0  0  0  0
    0.0000    0.0000    0.0000 H   0  0  0  0  0  0  0  0  0  0  0  0
    0.0000    0.0000    0.0000 H   0  0  0  0  0  0  0  0  0  0  0  0
    0.0000    0.0000    0.0000 H   0  0  0  0  0  0  0  0  0  0  0  0
    0.0000    0.0000    0.0000 H   0  0  0  0  0  0  0  0  0  0  0  0
    0.0000    0.0000    0.0000 H   0  0  0  0  0  0  0  0  0  0  0  0
    0.0000    0.0000    0.0000 H   0  0  0  0  0  0  0  0  0  0  0  0
    0.0000    0.0000    0.0000 H   0  0  0  0  0  0  0  0  0  0  0  0
    0.0000    0.0000    0.0000 H   0  0  0  0  0  0  0  0  0  0  0  0
    0.0000    0.0000    0.0000 H   0  0  0  0  0  0  0  0  0  0  0  0
    0.0000    0.0000    0.0000 H   0  0  0  0  0  0  0  0  0  0  0  0
    0.0000    0.0000    0.0000 H   0  0  0  0  0  0  0  0  0  0  0  0
   12.4590    5.2864    9.0973 C   0  0  0  0  0  0  0  0  0  0  0  0
   11.1862    5.2841    9.8761 C   0  0  0  0  0  0  0  0  0  0  0  0
   10.7383    6.6073   10.3932 C   0  0  0  0  0  0  0  0  0  0  0  0
   11.6043    7.2258   11.3436 N   0  0  0  0  0  0  0  0  0  0  0  0
   10.8854    8.3183   11.9744 C   0  0  0  0  0  0  0  0  0  0  0  0
   12.0947    6.3725   12.3757 C   0  0  0  0  0  0  0  0  0  0  0  0
   12.6233    4.2437    8.7377 H   0  0  0  0  0  0  0  0  0  0  0  0
   12.4248    5.9106    8.1779 H   0  0  0  0  0  0  0  0  0  0  0  0
   11.2808    4.5318   10.6920 H   0  0  0  0  0  0  0  0  0  0  0  0
   10.3645    4.8863    9.2360 H   0  0  0  0  0  0  0  0  0  0  0  0
   10.7653    7.2952    9.4856 H   0  0  0  0  0  0  0  0  0  0  0  0
    9.6816    6.5668   10.6754 H   0  0  0  0  0  0  0  0  0  0  0  0
   10.2370    7.8747   12.7766 H   0  0  0  0  0  0  0  0  0  0  0  0
   10.2745    8.8994   11.2674 H   0  0  0  0  0  0  0  0  0  0  0  0
   11.6389    8.9339   12.5036 H   0  0  0  0  0  0  0  0  0  0  0  0
   11.2717    6.0417   13.0715 H   0  0  0  0  0  0  0  0  0  0  0  0
   12.7912    6.9737   12.9967 H   0  0  0  0  0  0  0  0  0  0  0  0
   12.5863    5.4541   11.9919 H   0  0  0  0  0  0  0  0  0  0  0  0
  1  3  2  0
  1  4  1  0
  1  5  1  0
  2  4  1  0
  2  6  1  0
  4  9  1  0
  4 15  1  0
  5  6  1  0
  5  8  1  0
  6  7  2  3
  9 10  2  0
  9 14  1  0
 10 11  1  0
 11 12  2  0
 12 13  1  0
 13 14  2  0
 15 16  2  0
 15 20  1  0
 16 17  1  0
 17 18  2  0
 18 19  1  0
 19 20  2  0
  2 21  1  0
  7 22  1  0
  8 23  1  0
  8 24  1  0
  8 25  1  0
 10 26  1  0
 11 27  1  0
 12 28  1  0
 13 29  1  0
 14 30  1  0
 16 31  1  0
 17 32  1  0
 19 33  1  0
 20 34  1  0
 35 36  1  0
 36 37  1  0
 37 38  1  0
 38 39  1  0
 38 40  1  0
 35 41  1  0
 35 42  1  0
 36 43  1  0
 36 44  1  0
 37 45  1  0
 37 46  1  0
 39 47  1  0
 39 48  1  0
 39 49  1  0
 40 50  1  0
 40 51  1  0
 40 52  1  0
 18 35  1  0
M  END
>  <attachment_point>  (270) 
32

>  <score>  (270) 
<NA>

$$$$
4djw
     RDKit          3D

 50 54  0  0  0  0  0  0  0  0999 V2000
   22.4950   11.8750   22.5810 C   0  0  0  0  0  0  0  0  0  0  0  0
   22.5380    9.4930   22.4640 N   0  0  0  0  0  0  0  0  0  0  0  0
   22.3600   13.0630   22.3480 O   0  0  0  0  0  0  0  0  0  0  0  0
   22.3390   10.6680   21.5610 C   0  0  0  0  0  0  0  0  0  0  0  0
   22.7860   11.3350   23.8120 N   0  0  0  0  0  0  0  0  0  0  0  0
   22.7800    9.9140   23.7010 C   0  0  0  0  0  0  0  0  0  0  0  0
   22.9970    9.1110   24.7490 N   0  0  0  0  0  0  0  0  0  0  0  0
   23.0220   12.1410   25.0180 C   0  0  0  0  0  0  0  0  0  0  0  0
   20.9020   10.6270   21.0050 C   0  0  0  0  0  0  0  0  0  0  0  0
   20.2720    9.4140   20.7470 C   0  0  0  0  0  0  0  0  0  0  0  0
   18.9690    9.3760   20.2600 C   0  0  0  0  0  0  0  0  0  0  0  0
   18.2800   10.5440   20.0210 C   0  0  0  0  0  0  0  0  0  0  0  0
   18.8920   11.7530   20.2590 C   0  0  0  0  0  0  0  0  0  0  0  0
   20.1950   11.7970   20.7440 C   0  0  0  0  0  0  0  0  0  0  0  0
   23.4880   10.6920   20.5300 C   0  0  0  0  0  0  0  0  0  0  0  0
   23.2110   10.7890   19.1730 C   0  0  0  0  0  0  0  0  0  0  0  0
   24.2350   10.8650   18.2430 C   0  0  0  0  0  0  0  0  0  0  0  0
   25.5500   10.8410   18.6560 C   0  0  0  0  0  0  0  0  0  0  0  0
   25.8710   10.7460   20.0070 C   0  0  0  0  0  0  0  0  0  0  0  0
   24.8260   10.6610   20.9430 C   0  0  0  0  0  0  0  0  0  0  0  0
    0.0000    0.0000    0.0000 H   0  0  0  0  0  0  0  0  0  0  0  0
    0.0000    0.0000    0.0000 H   0  0  0  0  0  0  0  0  0  0  0  0
    0.0000    0.0000    0.0000 H   0  0  0  0  0  0  0  0  0  0  0  0
    0.0000    0.0000    0.0000 H   0  0  0  0  0  0  0  0  0  0  0  0
    0.0000    0.0000    0.0000 H   0  0  0  0  0  0  0  0  0  0  0  0
    0.0000    0.0000    0.0000 H   0  0  0  0  0  0  0  0  0  0  0  0
    0.0000    0.0000    0.0000 H   0  0  0  0  0  0  0  0  0  0  0  0
    0.0000    0.0000    0.0000 H   0  0  0  0  0  0  0  0  0  0  0  0
    0.0000    0.0000    0.0000 H   0  0  0  0  0  0  0  0  0  0  0  0
    0.0000    0.0000    0.0000 H   0  0  0  0  0  0  0  0  0  0  0  0
    0.0000    0.0000    0.0000 H   0  0  0  0  0  0  0  0  0  0  0  0
    0.0000    0.0000    0.0000 H   0  0  0  0  0  0  0  0  0  0  0  0
    0.0000    0.0000    0.0000 H   0  0  0  0  0  0  0  0  0  0  0  0
    0.0000    0.0000    0.0000 H   0  0  0  0  0  0  0  0  0  0  0  0
   12.4087    5.2651    9.0605 C   0  0  0  0  0  0  0  0  0  0  0  0
   11.1459    5.4730    9.5725 C   0  0  0  0  0  0  0  0  0  0  0  0
   10.0955    5.0255    8.8024 C   0  0  0  0  0  0  0  0  0  0  0  0
   10.3115    4.3999    7.5770 C   0  0  0  0  0  0  0  0  0  0  0  0
    9.2473    3.9585    6.8198 C   0  0  0  0  0  0  0  0  0  0  0  0
    9.4670    3.3340    5.5964 C   0  0  0  0  0  0  0  0  0  0  0  0
   10.7690    3.1735    5.1726 C   0  0  0  0  0  0  0  0  0  0  0  0
   11.8185    3.6204    5.9416 C   0  0  0  0  0  0  0  0  0  0  0  0
   11.6134    4.2494    7.1722 C   0  0  0  0  0  0  0  0  0  0  0  0
   12.6747    4.6789    7.9071 N   0  0  0  0  0  0  0  0  0  0  0  0
   11.0599    5.9623   10.5233 H   0  0  0  0  0  0  0  0  0  0  0  0
    9.0946    5.1778    9.1839 H   0  0  0  0  0  0  0  0  0  0  0  0
    8.2279    4.0863    7.1558 H   0  0  0  0  0  0  0  0  0  0  0  0
    8.6312    2.9833    4.9939 H   0  0  0  0  0  0  0  0  0  0  0  0
   10.9453    2.6888    4.2225 H   0  0  0  0  0  0  0  0  0  0  0  0
   12.8146    3.4856    5.5942 H   0  0  0  0  0  0  0  0  0  0  0  0
  1  3  2  0
  1  4  1  0
  1  5  1  0
  2  4  1  0
  2  6  1  0
  4  9  1  0
  4 15  1  0
  5  6  1  0
  5  8  1  0
  6  7  2  3
  9 10  2  0
  9 14  1  0
 10 11  1  0
 11 12  2  0
 12 13  1  0
 13 14  2  0
 15 16  2  0
 15 20  1  0
 16 17  1  0
 17 18  2  0
 18 19  1  0
 19 20  2  0
  2 21  1  0
  7 22  1  0
  8 23  1  0
  8 24  1  0
  8 25  1  0
 10 26  1  0
 11 27  1  0
 12 28  1  0
 13 29  1  0
 14 30  1  0
 16 31  1  0
 17 32  1  0
 19 33  1  0
 20 34  1  0
 35 36  2  0
 36 37  1  0
 37 38  2  0
 38 39  1  0
 39 40  2  0
 40 41  1  0
 41 42  2  0
 42 43  1  0
 43 44  2  0
 44 35  1  0
 43 38  1  0
 36 45  1  0
 37 46  1  0
 39 47  1  0
 40 48  1  0
 41 49  1  0
 42 50  1  0
 18 35  1  0
M  END
>  <attachment_point>  (271) 
32

>  <score>  (271) 
<NA>

$$$$
4djw
     RDKit          3D

 44 47  0  0  0  0  0  0  0  0999 V2000
   22.4950   11.8750   22.5810 C   0  0  0  0  0  0  0  0  0  0  0  0
   22.5380    9.4930   22.4640 N   0  0  0  0  0  0  0  0  0  0  0  0
   22.3600   13.0630   22.3480 O   0  0  0  0  0  0  0  0  0  0  0  0
   22.3390   10.6680   21.5610 C   0  0  0  0  0  0  0  0  0  0  0  0
   22.7860   11.3350   23.8120 N   0  0  0  0  0  0  0  0  0  0  0  0
   22.7800    9.9140   23.7010 C   0  0  0  0  0  0  0  0  0  0  0  0
   22.9970    9.1110   24.7490 N   0  0  0  0  0  0  0  0  0  0  0  0
   23.0220   12.1410   25.0180 C   0  0  0  0  0  0  0  0  0  0  0  0
   20.9020   10.6270   21.0050 C   0  0  0  0  0  0  0  0  0  0  0  0
   20.2720    9.4140   20.7470 C   0  0  0  0  0  0  0  0  0  0  0  0
   18.9690    9.3760   20.2600 C   0  0  0  0  0  0  0  0  0  0  0  0
   18.2800   10.5440   20.0210 C   0  0  0  0  0  0  0  0  0  0  0  0
   18.8920   11.7530   20.2590 C   0  0  0  0  0  0  0  0  0  0  0  0
   20.1950   11.7970   20.7440 C   0  0  0  0  0  0  0  0  0  0  0  0
   23.4880   10.6920   20.5300 C   0  0  0  0  0  0  0  0  0  0  0  0
   23.2110   10.7890   19.1730 C   0  0  0  0  0  0  0  0  0  0  0  0
   24.2350   10.8650   18.2430 C   0  0  0  0  0  0  0  0  0  0  0  0
   25.5500   10.8410   18.6560 C   0  0  0  0  0  0  0  0  0  0  0  0
   25.8710   10.7460   20.0070 C   0  0  0  0  0  0  0  0  0  0  0  0
   24.8260   10.6610   20.9430 C   0  0  0  0  0  0  0  0  0  0  0  0
    0.0000    0.0000    0.0000 H   0  0  0  0  0  0  0  0  0  0  0  0
    0.0000    0.0000    0.0000 H   0  0  0  0  0  0  0  0  0  0  0  0
    0.0000    0.0000    0.0000 H   0  0  0  0  0  0  0  0  0  0  0  0
    0.0000    0.0000    0.0000 H   0  0  0  0  0  0  0  0  0  0  0  0
    0.0000    0.0000    0.0000 H   0  0  0  0  0  0  0  0  0  0  0  0
    0.0000    0.0000    0.0000 H   0  0  0  0  0  0  0  0  0  0  0  0
    0.0000    0.0000    0.0000 H   0  0  0  0  0  0  0  0  0  0  0  0
    0.0000    0.0000    0.0000 H   0  0  0  0  0  0  0  0  0  0  0  0
    0.0000    0.0000    0.0000 H   0  0  0  0  0  0  0  0  0  0  0  0
    0.0000    0.0000    0.0000 H   0  0  0  0  0  0  0  0  0  0  0  0
    0.0000    0.0000    0.0000 H   0  0  0  0  0  0  0  0  0  0  0  0
    0.0000    0.0000    0.0000 H   0  0  0  0  0  0  0  0  0  0  0  0
    0.0000    0.0000    0.0000 H   0  0  0  0  0  0  0  0  0  0  0  0
    0.0000    0.0000    0.0000 H   0  0  0  0  0  0  0  0  0  0  0  0
   12.3604    5.2446    9.0253 C   0  0  0  0  0  0  0  0  0  0  0  0
   12.7338    4.4115    8.1408 C   0  0  0  0  0  0  0  0  0  0  0  0
   14.4264    3.8037    7.8293 S   0  0  0  0  0  0  0  0  0  0  0  0
   14.0603    3.2125    6.1818 C   0  0  0  0  0  0  0  0  0  0  0  0
   14.8680    2.9572    5.2601 O   0  0  0  0  0  0  0  0  0  0  0  0
   12.6729    3.0898    6.1250 N   0  0  0  0  0  0  0  0  0  0  0  0
   11.9547    3.6994    7.1254 C   0  0  0  0  0  0  0  0  0  0  0  0
   10.6811    3.6978    7.2434 O   0  0  0  0  0  0  0  0  0  0  0  0
   11.5275    5.6949    9.3552 H   0  0  0  0  0  0  0  0  0  0  0  0
   12.2074    2.5431    5.3331 H   0  0  0  0  0  0  0  0  0  0  0  0
  1  3  2  0
  1  4  1  0
  1  5  1  0
  2  4  1  0
  2  6  1  0
  4  9  1  0
  4 15  1  0
  5  6  1  0
  5  8  1  0
  6  7  2  3
  9 10  2  0
  9 14  1  0
 10 11  1  0
 11 12  2  0
 12 13  1  0
 13 14  2  0
 15 16  2  0
 15 20  1  0
 16 17  1  0
 17 18  2  0
 18 19  1  0
 19 20  2  0
  2 21  1  0
  7 22  1  0
  8 23  1  0
  8 24  1  0
  8 25  1  0
 10 26  1  0
 11 27  1  0
 12 28  1  0
 13 29  1  0
 14 30  1  0
 16 31  1  0
 17 32  1  0
 19 33  1  0
 20 34  1  0
 35 36  2  3
 36 37  1  0
 37 38  1  0
 38 39  2  0
 38 40  1  0
 40 41  1  0
 41 42  2  0
 41 36  1  0
 35 43  1  0
 40 44  1  0
 18 35  1  0
M  END
>  <attachment_point>  (272) 
32

>  <score>  (272) 
<NA>

$$$$
4djw
     RDKit          3D

 48 51  0  0  0  0  0  0  0  0999 V2000
   22.4950   11.8750   22.5810 C   0  0  0  0  0  0  0  0  0  0  0  0
   22.5380    9.4930   22.4640 N   0  0  0  0  0  0  0  0  0  0  0  0
   22.3600   13.0630   22.3480 O   0  0  0  0  0  0  0  0  0  0  0  0
   22.3390   10.6680   21.5610 C   0  0  0  0  0  0  0  0  0  0  0  0
   22.7860   11.3350   23.8120 N   0  0  0  0  0  0  0  0  0  0  0  0
   22.7800    9.9140   23.7010 C   0  0  0  0  0  0  0  0  0  0  0  0
   22.9970    9.1110   24.7490 N   0  0  0  0  0  0  0  0  0  0  0  0
   23.0220   12.1410   25.0180 C   0  0  0  0  0  0  0  0  0  0  0  0
   20.9020   10.6270   21.0050 C   0  0  0  0  0  0  0  0  0  0  0  0
   20.2720    9.4140   20.7470 C   0  0  0  0  0  0  0  0  0  0  0  0
   18.9690    9.3760   20.2600 C   0  0  0  0  0  0  0  0  0  0  0  0
   18.2800   10.5440   20.0210 C   0  0  0  0  0  0  0  0  0  0  0  0
   18.8920   11.7530   20.2590 C   0  0  0  0  0  0  0  0  0  0  0  0
   20.1950   11.7970   20.7440 C   0  0  0  0  0  0  0  0  0  0  0  0
   23.4880   10.6920   20.5300 C   0  0  0  0  0  0  0  0  0  0  0  0
   23.2110   10.7890   19.1730 C   0  0  0  0  0  0  0  0  0  0  0  0
   24.2350   10.8650   18.2430 C   0  0  0  0  0  0  0  0  0  0  0  0
   25.5500   10.8410   18.6560 C   0  0  0  0  0  0  0  0  0  0  0  0
   25.8710   10.7460   20.0070 C   0  0  0  0  0  0  0  0  0  0  0  0
   24.8260   10.6610   20.9430 C   0  0  0  0  0  0  0  0  0  0  0  0
    0.0000    0.0000    0.0000 H   0  0  0  0  0  0  0  0  0  0  0  0
    0.0000    0.0000    0.0000 H   0  0  0  0  0  0  0  0  0  0  0  0
    0.0000    0.0000    0.0000 H   0  0  0  0  0  0  0  0  0  0  0  0
    0.0000    0.0000    0.0000 H   0  0  0  0  0  0  0  0  0  0  0  0
    0.0000    0.0000    0.0000 H   0  0  0  0  0  0  0  0  0  0  0  0
    0.0000    0.0000    0.0000 H   0  0  0  0  0  0  0  0  0  0  0  0
    0.0000    0.0000    0.0000 H   0  0  0  0  0  0  0  0  0  0  0  0
    0.0000    0.0000    0.0000 H   0  0  0  0  0  0  0  0  0  0  0  0
    0.0000    0.0000    0.0000 H   0  0  0  0  0  0  0  0  0  0  0  0
    0.0000    0.0000    0.0000 H   0  0  0  0  0  0  0  0  0  0  0  0
    0.0000    0.0000    0.0000 H   0  0  0  0  0  0  0  0  0  0  0  0
    0.0000    0.0000    0.0000 H   0  0  0  0  0  0  0  0  0  0  0  0
    0.0000    0.0000    0.0000 H   0  0  0  0  0  0  0  0  0  0  0  0
    0.0000    0.0000    0.0000 H   0  0  0  0  0  0  0  0  0  0  0  0
   12.4510    5.2830    9.0914 C   0  0  0  0  0  0  0  0  0  0  0  0
   12.0387    3.9750    9.2762 C   0  0  0  0  0  0  0  0  0  0  0  0
   11.0110    3.5490    8.5216 N   0  0  0  0  0  0  0  0  0  0  0  0
   10.3789    4.3156    7.6162 C   0  0  0  0  0  0  0  0  0  0  0  0
   10.7881    5.6209    7.4295 C   0  0  0  0  0  0  0  0  0  0  0  0
   10.1451    6.4178    6.5012 O   0  0  0  0  0  0  0  0  0  0  0  0
    9.0779    5.8603    5.7668 C   0  0  0  0  0  0  0  0  0  0  0  0
   11.8365    6.1062    8.1777 C   0  0  0  0  0  0  0  0  0  0  0  0
   12.5440    3.3693    9.9969 H   0  0  0  0  0  0  0  0  0  0  0  0
    9.5559    3.9080    7.0402 H   0  0  0  0  0  0  0  0  0  0  0  0
    8.3084    5.3957    6.4139 H   0  0  0  0  0  0  0  0  0  0  0  0
    9.5119    5.0892    5.0961 H   0  0  0  0  0  0  0  0  0  0  0  0
    8.6310    6.7131    5.1769 H   0  0  0  0  0  0  0  0  0  0  0  0
   12.1981    7.1130    8.0758 H   0  0  0  0  0  0  0  0  0  0  0  0
  1  3  2  0
  1  4  1  0
  1  5  1  0
  2  4  1  0
  2  6  1  0
  4  9  1  0
  4 15  1  0
  5  6  1  0
  5  8  1  0
  6  7  2  3
  9 10  2  0
  9 14  1  0
 10 11  1  0
 11 12  2  0
 12 13  1  0
 13 14  2  0
 15 16  2  0
 15 20  1  0
 16 17  1  0
 17 18  2  0
 18 19  1  0
 19 20  2  0
  2 21  1  0
  7 22  1  0
  8 23  1  0
  8 24  1  0
  8 25  1  0
 10 26  1  0
 11 27  1  0
 12 28  1  0
 13 29  1  0
 14 30  1  0
 16 31  1  0
 17 32  1  0
 19 33  1  0
 20 34  1  0
 35 36  2  0
 36 37  1  0
 37 38  2  0
 38 39  1  0
 39 40  1  0
 40 41  1  0
 39 42  2  0
 42 35  1  0
 36 43  1  0
 38 44  1  0
 41 45  1  0
 41 46  1  0
 41 47  1  0
 42 48  1  0
 18 35  1  0
M  END
>  <attachment_point>  (273) 
32

>  <score>  (273) 
<NA>

$$$$
4djw
     RDKit          3D

 47 50  0  0  0  0  0  0  0  0999 V2000
   22.4950   11.8750   22.5810 C   0  0  0  0  0  0  0  0  0  0  0  0
   22.5380    9.4930   22.4640 N   0  0  0  0  0  0  0  0  0  0  0  0
   22.3600   13.0630   22.3480 O   0  0  0  0  0  0  0  0  0  0  0  0
   22.3390   10.6680   21.5610 C   0  0  0  0  0  0  0  0  0  0  0  0
   22.7860   11.3350   23.8120 N   0  0  0  0  0  0  0  0  0  0  0  0
   22.7800    9.9140   23.7010 C   0  0  0  0  0  0  0  0  0  0  0  0
   22.9970    9.1110   24.7490 N   0  0  0  0  0  0  0  0  0  0  0  0
   23.0220   12.1410   25.0180 C   0  0  0  0  0  0  0  0  0  0  0  0
   20.9020   10.6270   21.0050 C   0  0  0  0  0  0  0  0  0  0  0  0
   20.2720    9.4140   20.7470 C   0  0  0  0  0  0  0  0  0  0  0  0
   18.9690    9.3760   20.2600 C   0  0  0  0  0  0  0  0  0  0  0  0
   18.2800   10.5440   20.0210 C   0  0  0  0  0  0  0  0  0  0  0  0
   18.8920   11.7530   20.2590 C   0  0  0  0  0  0  0  0  0  0  0  0
   20.1950   11.7970   20.7440 C   0  0  0  0  0  0  0  0  0  0  0  0
   23.4880   10.6920   20.5300 C   0  0  0  0  0  0  0  0  0  0  0  0
   23.2110   10.7890   19.1730 C   0  0  0  0  0  0  0  0  0  0  0  0
   24.2350   10.8650   18.2430 C   0  0  0  0  0  0  0  0  0  0  0  0
   25.5500   10.8410   18.6560 C   0  0  0  0  0  0  0  0  0  0  0  0
   25.8710   10.7460   20.0070 C   0  0  0  0  0  0  0  0  0  0  0  0
   24.8260   10.6610   20.9430 C   0  0  0  0  0  0  0  0  0  0  0  0
    0.0000    0.0000    0.0000 H   0  0  0  0  0  0  0  0  0  0  0  0
    0.0000    0.0000    0.0000 H   0  0  0  0  0  0  0  0  0  0  0  0
    0.0000    0.0000    0.0000 H   0  0  0  0  0  0  0  0  0  0  0  0
    0.0000    0.0000    0.0000 H   0  0  0  0  0  0  0  0  0  0  0  0
    0.0000    0.0000    0.0000 H   0  0  0  0  0  0  0  0  0  0  0  0
    0.0000    0.0000    0.0000 H   0  0  0  0  0  0  0  0  0  0  0  0
    0.0000    0.0000    0.0000 H   0  0  0  0  0  0  0  0  0  0  0  0
    0.0000    0.0000    0.0000 H   0  0  0  0  0  0  0  0  0  0  0  0
    0.0000    0.0000    0.0000 H   0  0  0  0  0  0  0  0  0  0  0  0
    0.0000    0.0000    0.0000 H   0  0  0  0  0  0  0  0  0  0  0  0
    0.0000    0.0000    0.0000 H   0  0  0  0  0  0  0  0  0  0  0  0
    0.0000    0.0000    0.0000 H   0  0  0  0  0  0  0  0  0  0  0  0
    0.0000    0.0000    0.0000 H   0  0  0  0  0  0  0  0  0  0  0  0
    0.0000    0.0000    0.0000 H   0  0  0  0  0  0  0  0  0  0  0  0
   12.4216    5.2706    9.0700 C   0  0  0  0  0  0  0  0  0  0  0  0
   11.1718    5.5238    9.4928 N   0  0  0  0  0  0  0  0  0  0  0  0
   10.0810    5.1291    8.8126 C   0  0  0  0  0  0  0  0  0  0  0  0
   10.3063    4.4368    7.6342 C   0  0  0  0  0  0  0  0  0  0  0  0
   11.5829    4.1642    7.1783 C   0  0  0  0  0  0  0  0  0  0  0  0
   12.6802    4.5874    7.9073 C   0  0  0  0  0  0  0  0  0  0  0  0
   14.0747    4.3239    7.4681 C   0  0  0  0  0  0  0  0  0  0  0  0
   14.0108    3.6248    6.2760 F   0  0  0  0  0  0  0  0  0  0  0  0
   14.8160    5.4859    7.3540 F   0  0  0  0  0  0  0  0  0  0  0  0
   14.7027    3.5501    8.4409 F   0  0  0  0  0  0  0  0  0  0  0  0
    9.0743    5.3329    9.1527 H   0  0  0  0  0  0  0  0  0  0  0  0
    9.4311    4.1070    7.0658 H   0  0  0  0  0  0  0  0  0  0  0  0
   11.7409    3.6192    6.2507 H   0  0  0  0  0  0  0  0  0  0  0  0
  1  3  2  0
  1  4  1  0
  1  5  1  0
  2  4  1  0
  2  6  1  0
  4  9  1  0
  4 15  1  0
  5  6  1  0
  5  8  1  0
  6  7  2  3
  9 10  2  0
  9 14  1  0
 10 11  1  0
 11 12  2  0
 12 13  1  0
 13 14  2  0
 15 16  2  0
 15 20  1  0
 16 17  1  0
 17 18  2  0
 18 19  1  0
 19 20  2  0
  2 21  1  0
  7 22  1  0
  8 23  1  0
  8 24  1  0
  8 25  1  0
 10 26  1  0
 11 27  1  0
 12 28  1  0
 13 29  1  0
 14 30  1  0
 16 31  1  0
 17 32  1  0
 19 33  1  0
 20 34  1  0
 35 36  2  0
 36 37  1  0
 37 38  2  0
 38 39  1  0
 39 40  2  0
 40 41  1  0
 41 42  1  0
 41 43  1  0
 41 44  1  0
 40 35  1  0
 37 45  1  0
 38 46  1  0
 39 47  1  0
 18 35  1  0
M  END
>  <attachment_point>  (274) 
32

>  <score>  (274) 
<NA>

$$$$
4djw
     RDKit          3D

 53 56  0  0  0  0  0  0  0  0999 V2000
   22.4950   11.8750   22.5810 C   0  0  0  0  0  0  0  0  0  0  0  0
   22.5380    9.4930   22.4640 N   0  0  0  0  0  0  0  0  0  0  0  0
   22.3600   13.0630   22.3480 O   0  0  0  0  0  0  0  0  0  0  0  0
   22.3390   10.6680   21.5610 C   0  0  0  0  0  0  0  0  0  0  0  0
   22.7860   11.3350   23.8120 N   0  0  0  0  0  0  0  0  0  0  0  0
   22.7800    9.9140   23.7010 C   0  0  0  0  0  0  0  0  0  0  0  0
   22.9970    9.1110   24.7490 N   0  0  0  0  0  0  0  0  0  0  0  0
   23.0220   12.1410   25.0180 C   0  0  0  0  0  0  0  0  0  0  0  0
   20.9020   10.6270   21.0050 C   0  0  0  0  0  0  0  0  0  0  0  0
   20.2720    9.4140   20.7470 C   0  0  0  0  0  0  0  0  0  0  0  0
   18.9690    9.3760   20.2600 C   0  0  0  0  0  0  0  0  0  0  0  0
   18.2800   10.5440   20.0210 C   0  0  0  0  0  0  0  0  0  0  0  0
   18.8920   11.7530   20.2590 C   0  0  0  0  0  0  0  0  0  0  0  0
   20.1950   11.7970   20.7440 C   0  0  0  0  0  0  0  0  0  0  0  0
   23.4880   10.6920   20.5300 C   0  0  0  0  0  0  0  0  0  0  0  0
   23.2110   10.7890   19.1730 C   0  0  0  0  0  0  0  0  0  0  0  0
   24.2350   10.8650   18.2430 C   0  0  0  0  0  0  0  0  0  0  0  0
   25.5500   10.8410   18.6560 C   0  0  0  0  0  0  0  0  0  0  0  0
   25.8710   10.7460   20.0070 C   0  0  0  0  0  0  0  0  0  0  0  0
   24.8260   10.6610   20.9430 C   0  0  0  0  0  0  0  0  0  0  0  0
    0.0000    0.0000    0.0000 H   0  0  0  0  0  0  0  0  0  0  0  0
    0.0000    0.0000    0.0000 H   0  0  0  0  0  0  0  0  0  0  0  0
    0.0000    0.0000    0.0000 H   0  0  0  0  0  0  0  0  0  0  0  0
    0.0000    0.0000    0.0000 H   0  0  0  0  0  0  0  0  0  0  0  0
    0.0000    0.0000    0.0000 H   0  0  0  0  0  0  0  0  0  0  0  0
    0.0000    0.0000    0.0000 H   0  0  0  0  0  0  0  0  0  0  0  0
    0.0000    0.0000    0.0000 H   0  0  0  0  0  0  0  0  0  0  0  0
    0.0000    0.0000    0.0000 H   0  0  0  0  0  0  0  0  0  0  0  0
    0.0000    0.0000    0.0000 H   0  0  0  0  0  0  0  0  0  0  0  0
    0.0000    0.0000    0.0000 H   0  0  0  0  0  0  0  0  0  0  0  0
    0.0000    0.0000    0.0000 H   0  0  0  0  0  0  0  0  0  0  0  0
    0.0000    0.0000    0.0000 H   0  0  0  0  0  0  0  0  0  0  0  0
    0.0000    0.0000    0.0000 H   0  0  0  0  0  0  0  0  0  0  0  0
    0.0000    0.0000    0.0000 H   0  0  0  0  0  0  0  0  0  0  0  0
   12.4011    5.2618    9.0550 N   0  0  0  0  0  0  0  0  0  0  0  0
   12.8584    3.5840    9.0767 S   0  0  0  0  0  6  0  0  0  0  0  0
   11.8105    2.8362    8.3273 O   0  0  0  0  0  0  0  0  0  0  0  0
   12.9286    3.1515   10.5250 O   0  0  0  0  0  0  0  0  0  0  0  0
   14.4306    3.4694    8.3150 C   0  0  0  0  0  0  0  0  0  0  0  0
   14.5764    3.2677    6.9568 C   0  0  0  0  0  0  0  0  0  0  0  0
   15.8201    3.1787    6.3657 C   0  0  0  0  0  0  0  0  0  0  0  0
   16.9823    3.2866    7.1009 C   0  0  0  0  0  0  0  0  0  0  0  0
   18.3308    3.1900    6.4589 C   0  0  0  0  0  0  0  0  0  0  0  0
   16.8437    3.4881    8.4576 C   0  0  0  0  0  0  0  0  0  0  0  0
   15.5985    3.5765    9.0448 C   0  0  0  0  0  0  0  0  0  0  0  0
   11.6898    5.4176    9.8188 H   0  0  0  0  0  0  0  0  0  0  0  0
   13.6570    3.1809    6.3656 H   0  0  0  0  0  0  0  0  0  0  0  0
   15.9069    3.0184    5.2861 H   0  0  0  0  0  0  0  0  0  0  0  0
   18.7714    2.1730    6.5935 H   0  0  0  0  0  0  0  0  0  0  0  0
   19.0382    3.9303    6.8796 H   0  0  0  0  0  0  0  0  0  0  0  0
   18.2016    3.4427    5.3953 H   0  0  0  0  0  0  0  0  0  0  0  0
   17.7535    3.5740    9.0429 H   0  0  0  0  0  0  0  0  0  0  0  0
   15.4827    3.7362   10.1201 H   0  0  0  0  0  0  0  0  0  0  0  0
  1  3  2  0
  1  4  1  0
  1  5  1  0
  2  4  1  0
  2  6  1  0
  4  9  1  0
  4 15  1  0
  5  6  1  0
  5  8  1  0
  6  7  2  3
  9 10  2  0
  9 14  1  0
 10 11  1  0
 11 12  2  0
 12 13  1  0
 13 14  2  0
 15 16  2  0
 15 20  1  0
 16 17  1  0
 17 18  2  0
 18 19  1  0
 19 20  2  0
  2 21  1  0
  7 22  1  0
  8 23  1  0
  8 24  1  0
  8 25  1  0
 10 26  1  0
 11 27  1  0
 12 28  1  0
 13 29  1  0
 14 30  1  0
 16 31  1  0
 17 32  1  0
 19 33  1  0
 20 34  1  0
 35 36  1  0
 36 37  2  0
 36 38  2  0
 36 39  1  0
 39 40  2  0
 40 41  1  0
 41 42  2  0
 42 43  1  0
 42 44  1  0
 44 45  2  0
 45 39  1  0
 35 46  1  0
 40 47  1  0
 41 48  1  0
 43 49  1  0
 43 50  1  0
 43 51  1  0
 44 52  1  0
 45 53  1  0
 18 35  1  0
M  END
>  <attachment_point>  (275) 
32

>  <score>  (275) 
<NA>

$$$$
4djw
     RDKit          3D

 52 55  0  0  0  0  0  0  0  0999 V2000
   22.4950   11.8750   22.5810 C   0  0  0  0  0  0  0  0  0  0  0  0
   22.5380    9.4930   22.4640 N   0  0  0  0  0  0  0  0  0  0  0  0
   22.3600   13.0630   22.3480 O   0  0  0  0  0  0  0  0  0  0  0  0
   22.3390   10.6680   21.5610 C   0  0  0  0  0  0  0  0  0  0  0  0
   22.7860   11.3350   23.8120 N   0  0  0  0  0  0  0  0  0  0  0  0
   22.7800    9.9140   23.7010 C   0  0  0  0  0  0  0  0  0  0  0  0
   22.9970    9.1110   24.7490 N   0  0  0  0  0  0  0  0  0  0  0  0
   23.0220   12.1410   25.0180 C   0  0  0  0  0  0  0  0  0  0  0  0
   20.9020   10.6270   21.0050 C   0  0  0  0  0  0  0  0  0  0  0  0
   20.2720    9.4140   20.7470 C   0  0  0  0  0  0  0  0  0  0  0  0
   18.9690    9.3760   20.2600 C   0  0  0  0  0  0  0  0  0  0  0  0
   18.2800   10.5440   20.0210 C   0  0  0  0  0  0  0  0  0  0  0  0
   18.8920   11.7530   20.2590 C   0  0  0  0  0  0  0  0  0  0  0  0
   20.1950   11.7970   20.7440 C   0  0  0  0  0  0  0  0  0  0  0  0
   23.4880   10.6920   20.5300 C   0  0  0  0  0  0  0  0  0  0  0  0
   23.2110   10.7890   19.1730 C   0  0  0  0  0  0  0  0  0  0  0  0
   24.2350   10.8650   18.2430 C   0  0  0  0  0  0  0  0  0  0  0  0
   25.5500   10.8410   18.6560 C   0  0  0  0  0  0  0  0  0  0  0  0
   25.8710   10.7460   20.0070 C   0  0  0  0  0  0  0  0  0  0  0  0
   24.8260   10.6610   20.9430 C   0  0  0  0  0  0  0  0  0  0  0  0
    0.0000    0.0000    0.0000 H   0  0  0  0  0  0  0  0  0  0  0  0
    0.0000    0.0000    0.0000 H   0  0  0  0  0  0  0  0  0  0  0  0
    0.0000    0.0000    0.0000 H   0  0  0  0  0  0  0  0  0  0  0  0
    0.0000    0.0000    0.0000 H   0  0  0  0  0  0  0  0  0  0  0  0
    0.0000    0.0000    0.0000 H   0  0  0  0  0  0  0  0  0  0  0  0
    0.0000    0.0000    0.0000 H   0  0  0  0  0  0  0  0  0  0  0  0
    0.0000    0.0000    0.0000 H   0  0  0  0  0  0  0  0  0  0  0  0
    0.0000    0.0000    0.0000 H   0  0  0  0  0  0  0  0  0  0  0  0
    0.0000    0.0000    0.0000 H   0  0  0  0  0  0  0  0  0  0  0  0
    0.0000    0.0000    0.0000 H   0  0  0  0  0  0  0  0  0  0  0  0
    0.0000    0.0000    0.0000 H   0  0  0  0  0  0  0  0  0  0  0  0
    0.0000    0.0000    0.0000 H   0  0  0  0  0  0  0  0  0  0  0  0
    0.0000    0.0000    0.0000 H   0  0  0  0  0  0  0  0  0  0  0  0
    0.0000    0.0000    0.0000 H   0  0  0  0  0  0  0  0  0  0  0  0
   12.5458    5.3232    9.1606 O   0  0  0  0  0  0  0  0  0  0  0  0
   12.5327    5.4571    7.7924 C   0  0  0  0  0  0  0  0  0  0  0  0
   11.2656    4.8877    7.1742 C   0  0  0  0  0  0  0  0  0  0  0  0
   11.1141    3.4523    7.4654 C   0  0  0  0  0  0  0  0  0  0  0  0
   11.6346    2.4997    6.6293 C   0  0  0  0  0  0  0  0  0  0  0  0
   11.4999    1.1373    6.8907 C   0  0  0  0  0  0  0  0  0  0  0  0
   10.8231    0.7391    8.0234 C   0  0  0  0  0  0  0  0  0  0  0  0
   10.3047    1.7036    8.8555 C   0  0  0  0  0  0  0  0  0  0  0  0
   10.4404    3.0622    8.5928 C   0  0  0  0  0  0  0  0  0  0  0  0
   12.6891    6.5111    7.5081 H   0  0  0  0  0  0  0  0  0  0  0  0
   13.3735    4.8388    7.3814 H   0  0  0  0  0  0  0  0  0  0  0  0
   11.2595    5.0694    6.0850 H   0  0  0  0  0  0  0  0  0  0  0  0
   10.4283    5.4986    7.5892 H   0  0  0  0  0  0  0  0  0  0  0  0
   12.1711    2.8132    5.7313 H   0  0  0  0  0  0  0  0  0  0  0  0
   11.9145    0.3953    6.2243 H   0  0  0  0  0  0  0  0  0  0  0  0
   10.6830   -0.3020    8.2847 H   0  0  0  0  0  0  0  0  0  0  0  0
    9.7576    1.4358    9.7698 H   0  0  0  0  0  0  0  0  0  0  0  0
   10.0072    3.7966    9.2901 H   0  0  0  0  0  0  0  0  0  0  0  0
  1  3  2  0
  1  4  1  0
  1  5  1  0
  2  4  1  0
  2  6  1  0
  4  9  1  0
  4 15  1  0
  5  6  1  0
  5  8  1  0
  6  7  2  3
  9 10  2  0
  9 14  1  0
 10 11  1  0
 11 12  2  0
 12 13  1  0
 13 14  2  0
 15 16  2  0
 15 20  1  0
 16 17  1  0
 17 18  2  0
 18 19  1  0
 19 20  2  0
  2 21  1  0
  7 22  1  0
  8 23  1  0
  8 24  1  0
  8 25  1  0
 10 26  1  0
 11 27  1  0
 12 28  1  0
 13 29  1  0
 14 30  1  0
 16 31  1  0
 17 32  1  0
 19 33  1  0
 20 34  1  0
 35 36  1  0
 36 37  1  0
 37 38  1  0
 38 39  2  0
 39 40  1  0
 40 41  2  0
 41 42  1  0
 42 43  2  0
 43 38  1  0
 36 44  1  0
 36 45  1  0
 37 46  1  0
 37 47  1  0
 39 48  1  0
 40 49  1  0
 41 50  1  0
 42 51  1  0
 43 52  1  0
 18 35  1  0
M  END
>  <attachment_point>  (276) 
32

>  <score>  (276) 
<NA>

$$$$
4djw
     RDKit          3D

 52 55  0  0  0  0  0  0  0  0999 V2000
   22.4950   11.8750   22.5810 C   0  0  0  0  0  0  0  0  0  0  0  0
   22.5380    9.4930   22.4640 N   0  0  0  0  0  0  0  0  0  0  0  0
   22.3600   13.0630   22.3480 O   0  0  0  0  0  0  0  0  0  0  0  0
   22.3390   10.6680   21.5610 C   0  0  0  0  0  0  0  0  0  0  0  0
   22.7860   11.3350   23.8120 N   0  0  0  0  0  0  0  0  0  0  0  0
   22.7800    9.9140   23.7010 C   0  0  0  0  0  0  0  0  0  0  0  0
   22.9970    9.1110   24.7490 N   0  0  0  0  0  0  0  0  0  0  0  0
   23.0220   12.1410   25.0180 C   0  0  0  0  0  0  0  0  0  0  0  0
   20.9020   10.6270   21.0050 C   0  0  0  0  0  0  0  0  0  0  0  0
   20.2720    9.4140   20.7470 C   0  0  0  0  0  0  0  0  0  0  0  0
   18.9690    9.3760   20.2600 C   0  0  0  0  0  0  0  0  0  0  0  0
   18.2800   10.5440   20.0210 C   0  0  0  0  0  0  0  0  0  0  0  0
   18.8920   11.7530   20.2590 C   0  0  0  0  0  0  0  0  0  0  0  0
   20.1950   11.7970   20.7440 C   0  0  0  0  0  0  0  0  0  0  0  0
   23.4880   10.6920   20.5300 C   0  0  0  0  0  0  0  0  0  0  0  0
   23.2110   10.7890   19.1730 C   0  0  0  0  0  0  0  0  0  0  0  0
   24.2350   10.8650   18.2430 C   0  0  0  0  0  0  0  0  0  0  0  0
   25.5500   10.8410   18.6560 C   0  0  0  0  0  0  0  0  0  0  0  0
   25.8710   10.7460   20.0070 C   0  0  0  0  0  0  0  0  0  0  0  0
   24.8260   10.6610   20.9430 C   0  0  0  0  0  0  0  0  0  0  0  0
    0.0000    0.0000    0.0000 H   0  0  0  0  0  0  0  0  0  0  0  0
    0.0000    0.0000    0.0000 H   0  0  0  0  0  0  0  0  0  0  0  0
    0.0000    0.0000    0.0000 H   0  0  0  0  0  0  0  0  0  0  0  0
    0.0000    0.0000    0.0000 H   0  0  0  0  0  0  0  0  0  0  0  0
    0.0000    0.0000    0.0000 H   0  0  0  0  0  0  0  0  0  0  0  0
    0.0000    0.0000    0.0000 H   0  0  0  0  0  0  0  0  0  0  0  0
    0.0000    0.0000    0.0000 H   0  0  0  0  0  0  0  0  0  0  0  0
    0.0000    0.0000    0.0000 H   0  0  0  0  0  0  0  0  0  0  0  0
    0.0000    0.0000    0.0000 H   0  0  0  0  0  0  0  0  0  0  0  0
    0.0000    0.0000    0.0000 H   0  0  0  0  0  0  0  0  0  0  0  0
    0.0000    0.0000    0.0000 H   0  0  0  0  0  0  0  0  0  0  0  0
    0.0000    0.0000    0.0000 H   0  0  0  0  0  0  0  0  0  0  0  0
    0.0000    0.0000    0.0000 H   0  0  0  0  0  0  0  0  0  0  0  0
    0.0000    0.0000    0.0000 H   0  0  0  0  0  0  0  0  0  0  0  0
   12.4388    5.2779    9.0825 C   0  0  0  0  0  0  0  0  0  0  0  0
   12.6474    4.7677    7.9503 O   0  0  0  0  0  0  0  0  0  0  0  0
   11.1046    5.4137    9.6149 N   0  0  0  0  0  0  0  0  0  0  0  0
   10.0159    4.9406    8.7958 C   0  0  0  0  0  0  0  0  0  0  0  0
    8.8943    5.9334    8.6396 C   0  0  0  0  0  0  0  0  0  0  0  0
    8.2250    5.8985    9.9781 C   0  0  0  0  0  0  0  0  0  0  0  0
    8.7009    4.6563   10.6928 C   0  0  0  0  0  0  0  0  0  0  0  0
    9.3202    3.8538    9.5818 C   0  0  0  0  0  0  0  0  0  0  0  0
   11.0057    5.8464   10.5546 H   0  0  0  0  0  0  0  0  0  0  0  0
   10.3699    4.5462    7.8202 H   0  0  0  0  0  0  0  0  0  0  0  0
    8.2338    5.5443    7.8318 H   0  0  0  0  0  0  0  0  0  0  0  0
    9.2759    6.9557    8.3866 H   0  0  0  0  0  0  0  0  0  0  0  0
    8.4291    6.8036   10.5890 H   0  0  0  0  0  0  0  0  0  0  0  0
    7.1161    5.7988    9.8274 H   0  0  0  0  0  0  0  0  0  0  0  0
    7.8402    4.1224   11.1609 H   0  0  0  0  0  0  0  0  0  0  0  0
    9.4357    4.9862   11.4704 H   0  0  0  0  0  0  0  0  0  0  0  0
    8.4960    3.4176    8.9939 H   0  0  0  0  0  0  0  0  0  0  0  0
   10.0442    3.0996    9.9374 H   0  0  0  0  0  0  0  0  0  0  0  0
  1  3  2  0
  1  4  1  0
  1  5  1  0
  2  4  1  0
  2  6  1  0
  4  9  1  0
  4 15  1  0
  5  6  1  0
  5  8  1  0
  6  7  2  3
  9 10  2  0
  9 14  1  0
 10 11  1  0
 11 12  2  0
 12 13  1  0
 13 14  2  0
 15 16  2  0
 15 20  1  0
 16 17  1  0
 17 18  2  0
 18 19  1  0
 19 20  2  0
  2 21  1  0
  7 22  1  0
  8 23  1  0
  8 24  1  0
  8 25  1  0
 10 26  1  0
 11 27  1  0
 12 28  1  0
 13 29  1  0
 14 30  1  0
 16 31  1  0
 17 32  1  0
 19 33  1  0
 20 34  1  0
 35 36  2  0
 35 37  1  0
 37 38  1  0
 38 39  1  0
 39 40  1  0
 40 41  1  0
 41 42  1  0
 42 38  1  0
 37 43  1  0
 38 44  1  0
 39 45  1  0
 39 46  1  0
 40 47  1  0
 40 48  1  0
 41 49  1  0
 41 50  1  0
 42 51  1  0
 42 52  1  0
 18 35  1  0
M  END
>  <attachment_point>  (277) 
32

>  <score>  (277) 
<NA>

$$$$
4djw
     RDKit          3D

 48 52  0  0  0  0  0  0  0  0999 V2000
   22.4950   11.8750   22.5810 C   0  0  0  0  0  0  0  0  0  0  0  0
   22.5380    9.4930   22.4640 N   0  0  0  0  0  0  0  0  0  0  0  0
   22.3600   13.0630   22.3480 O   0  0  0  0  0  0  0  0  0  0  0  0
   22.3390   10.6680   21.5610 C   0  0  0  0  0  0  0  0  0  0  0  0
   22.7860   11.3350   23.8120 N   0  0  0  0  0  0  0  0  0  0  0  0
   22.7800    9.9140   23.7010 C   0  0  0  0  0  0  0  0  0  0  0  0
   22.9970    9.1110   24.7490 N   0  0  0  0  0  0  0  0  0  0  0  0
   23.0220   12.1410   25.0180 C   0  0  0  0  0  0  0  0  0  0  0  0
   20.9020   10.6270   21.0050 C   0  0  0  0  0  0  0  0  0  0  0  0
   20.2720    9.4140   20.7470 C   0  0  0  0  0  0  0  0  0  0  0  0
   18.9690    9.3760   20.2600 C   0  0  0  0  0  0  0  0  0  0  0  0
   18.2800   10.5440   20.0210 C   0  0  0  0  0  0  0  0  0  0  0  0
   18.8920   11.7530   20.2590 C   0  0  0  0  0  0  0  0  0  0  0  0
   20.1950   11.7970   20.7440 C   0  0  0  0  0  0  0  0  0  0  0  0
   23.4880   10.6920   20.5300 C   0  0  0  0  0  0  0  0  0  0  0  0
   23.2110   10.7890   19.1730 C   0  0  0  0  0  0  0  0  0  0  0  0
   24.2350   10.8650   18.2430 C   0  0  0  0  0  0  0  0  0  0  0  0
   25.5500   10.8410   18.6560 C   0  0  0  0  0  0  0  0  0  0  0  0
   25.8710   10.7460   20.0070 C   0  0  0  0  0  0  0  0  0  0  0  0
   24.8260   10.6610   20.9430 C   0  0  0  0  0  0  0  0  0  0  0  0
    0.0000    0.0000    0.0000 H   0  0  0  0  0  0  0  0  0  0  0  0
    0.0000    0.0000    0.0000 H   0  0  0  0  0  0  0  0  0  0  0  0
    0.0000    0.0000    0.0000 H   0  0  0  0  0  0  0  0  0  0  0  0
    0.0000    0.0000    0.0000 H   0  0  0  0  0  0  0  0  0  0  0  0
    0.0000    0.0000    0.0000 H   0  0  0  0  0  0  0  0  0  0  0  0
    0.0000    0.0000    0.0000 H   0  0  0  0  0  0  0  0  0  0  0  0
    0.0000    0.0000    0.0000 H   0  0  0  0  0  0  0  0  0  0  0  0
    0.0000    0.0000    0.0000 H   0  0  0  0  0  0  0  0  0  0  0  0
    0.0000    0.0000    0.0000 H   0  0  0  0  0  0  0  0  0  0  0  0
    0.0000    0.0000    0.0000 H   0  0  0  0  0  0  0  0  0  0  0  0
    0.0000    0.0000    0.0000 H   0  0  0  0  0  0  0  0  0  0  0  0
    0.0000    0.0000    0.0000 H   0  0  0  0  0  0  0  0  0  0  0  0
    0.0000    0.0000    0.0000 H   0  0  0  0  0  0  0  0  0  0  0  0
    0.0000    0.0000    0.0000 H   0  0  0  0  0  0  0  0  0  0  0  0
   12.4230    5.2712    9.0710 C   0  0  0  0  0  0  0  0  0  0  0  0
   12.1731    3.9344    9.1508 C   0  0  0  0  0  0  0  0  0  0  0  0
   11.1383    3.3948    8.4166 C   0  0  0  0  0  0  0  0  0  0  0  0
   10.3707    4.2236    7.6101 C   0  0  0  0  0  0  0  0  0  0  0  0
    9.3065    3.9815    6.7884 N   0  0  0  0  0  0  0  0  0  0  0  0
    8.9537    5.1454    6.2507 N   0  0  0  0  0  0  0  0  0  0  0  0
    9.7644    6.1337    6.7056 C   0  0  0  0  0  0  0  0  0  0  0  0
   10.6676    5.5670    7.5675 C   0  0  0  0  0  0  0  0  0  0  0  0
   11.7098    6.1412    8.3003 C   0  0  0  0  0  0  0  0  0  0  0  0
   12.7657    3.2947    9.7734 H   0  0  0  0  0  0  0  0  0  0  0  0
   10.9154    2.3518    8.4559 H   0  0  0  0  0  0  0  0  0  0  0  0
    8.8711    3.0392    6.6318 H   0  0  0  0  0  0  0  0  0  0  0  0
    9.7443    7.1875    6.4645 H   0  0  0  0  0  0  0  0  0  0  0  0
   11.9325    7.2012    8.2572 H   0  0  0  0  0  0  0  0  0  0  0  0
  1  3  2  0
  1  4  1  0
  1  5  1  0
  2  4  1  0
  2  6  1  0
  4  9  1  0
  4 15  1  0
  5  6  1  0
  5  8  1  0
  6  7  2  3
  9 10  2  0
  9 14  1  0
 10 11  1  0
 11 12  2  0
 12 13  1  0
 13 14  2  0
 15 16  2  0
 15 20  1  0
 16 17  1  0
 17 18  2  0
 18 19  1  0
 19 20  2  0
  2 21  1  0
  7 22  1  0
  8 23  1  0
  8 24  1  0
  8 25  1  0
 10 26  1  0
 11 27  1  0
 12 28  1  0
 13 29  1  0
 14 30  1  0
 16 31  1  0
 17 32  1  0
 19 33  1  0
 20 34  1  0
 35 36  2  0
 36 37  1  0
 37 38  2  0
 38 39  1  0
 39 40  1  0
 40 41  2  0
 41 42  1  0
 42 43  2  0
 43 35  1  0
 42 38  1  0
 36 44  1  0
 37 45  1  0
 39 46  1  0
 41 47  1  0
 43 48  1  0
 18 35  1  0
M  END
>  <attachment_point>  (278) 
32

>  <score>  (278) 
<NA>

$$$$
4djw
     RDKit          3D

 49 52  0  0  0  0  0  0  0  0999 V2000
   22.4950   11.8750   22.5810 C   0  0  0  0  0  0  0  0  0  0  0  0
   22.5380    9.4930   22.4640 N   0  0  0  0  0  0  0  0  0  0  0  0
   22.3600   13.0630   22.3480 O   0  0  0  0  0  0  0  0  0  0  0  0
   22.3390   10.6680   21.5610 C   0  0  0  0  0  0  0  0  0  0  0  0
   22.7860   11.3350   23.8120 N   0  0  0  0  0  0  0  0  0  0  0  0
   22.7800    9.9140   23.7010 C   0  0  0  0  0  0  0  0  0  0  0  0
   22.9970    9.1110   24.7490 N   0  0  0  0  0  0  0  0  0  0  0  0
   23.0220   12.1410   25.0180 C   0  0  0  0  0  0  0  0  0  0  0  0
   20.9020   10.6270   21.0050 C   0  0  0  0  0  0  0  0  0  0  0  0
   20.2720    9.4140   20.7470 C   0  0  0  0  0  0  0  0  0  0  0  0
   18.9690    9.3760   20.2600 C   0  0  0  0  0  0  0  0  0  0  0  0
   18.2800   10.5440   20.0210 C   0  0  0  0  0  0  0  0  0  0  0  0
   18.8920   11.7530   20.2590 C   0  0  0  0  0  0  0  0  0  0  0  0
   20.1950   11.7970   20.7440 C   0  0  0  0  0  0  0  0  0  0  0  0
   23.4880   10.6920   20.5300 C   0  0  0  0  0  0  0  0  0  0  0  0
   23.2110   10.7890   19.1730 C   0  0  0  0  0  0  0  0  0  0  0  0
   24.2350   10.8650   18.2430 C   0  0  0  0  0  0  0  0  0  0  0  0
   25.5500   10.8410   18.6560 C   0  0  0  0  0  0  0  0  0  0  0  0
   25.8710   10.7460   20.0070 C   0  0  0  0  0  0  0  0  0  0  0  0
   24.8260   10.6610   20.9430 C   0  0  0  0  0  0  0  0  0  0  0  0
    0.0000    0.0000    0.0000 H   0  0  0  0  0  0  0  0  0  0  0  0
    0.0000    0.0000    0.0000 H   0  0  0  0  0  0  0  0  0  0  0  0
    0.0000    0.0000    0.0000 H   0  0  0  0  0  0  0  0  0  0  0  0
    0.0000    0.0000    0.0000 H   0  0  0  0  0  0  0  0  0  0  0  0
    0.0000    0.0000    0.0000 H   0  0  0  0  0  0  0  0  0  0  0  0
    0.0000    0.0000    0.0000 H   0  0  0  0  0  0  0  0  0  0  0  0
    0.0000    0.0000    0.0000 H   0  0  0  0  0  0  0  0  0  0  0  0
    0.0000    0.0000    0.0000 H   0  0  0  0  0  0  0  0  0  0  0  0
    0.0000    0.0000    0.0000 H   0  0  0  0  0  0  0  0  0  0  0  0
    0.0000    0.0000    0.0000 H   0  0  0  0  0  0  0  0  0  0  0  0
    0.0000    0.0000    0.0000 H   0  0  0  0  0  0  0  0  0  0  0  0
    0.0000    0.0000    0.0000 H   0  0  0  0  0  0  0  0  0  0  0  0
    0.0000    0.0000    0.0000 H   0  0  0  0  0  0  0  0  0  0  0  0
    0.0000    0.0000    0.0000 H   0  0  0  0  0  0  0  0  0  0  0  0
   12.4790    5.2949    9.1118 O   0  0  0  0  0  0  0  0  0  0  0  0
   11.3022    5.5952    9.7448 C   0  0  0  0  0  0  0  0  0  0  0  0
   10.4308    6.4591    8.8388 C   0  0  0  0  0  0  0  0  0  0  0  0
    9.0711    5.8088    8.7909 C   0  0  0  0  0  0  0  0  0  0  0  0
    9.0607    4.9977   10.0759 C   0  0  0  0  0  0  0  0  0  0  0  0
   10.4493    4.3486    9.9664 C   0  0  0  0  0  0  0  0  0  0  0  0
   11.5202    6.1086   10.6899 H   0  0  0  0  0  0  0  0  0  0  0  0
   10.3332    7.4699    9.3266 H   0  0  0  0  0  0  0  0  0  0  0  0
   10.8799    6.6069    7.8494 H   0  0  0  0  0  0  0  0  0  0  0  0
    9.0199    5.0551    7.9619 H   0  0  0  0  0  0  0  0  0  0  0  0
    8.2413    6.5274    8.7550 H   0  0  0  0  0  0  0  0  0  0  0  0
    9.0650    5.6551   10.9768 H   0  0  0  0  0  0  0  0  0  0  0  0
    8.2724    4.2385   10.0909 H   0  0  0  0  0  0  0  0  0  0  0  0
   10.7189    3.8123   10.8823 H   0  0  0  0  0  0  0  0  0  0  0  0
   10.4358    3.7513    9.0553 H   0  0  0  0  0  0  0  0  0  0  0  0
  1  3  2  0
  1  4  1  0
  1  5  1  0
  2  4  1  0
  2  6  1  0
  4  9  1  0
  4 15  1  0
  5  6  1  0
  5  8  1  0
  6  7  2  3
  9 10  2  0
  9 14  1  0
 10 11  1  0
 11 12  2  0
 12 13  1  0
 13 14  2  0
 15 16  2  0
 15 20  1  0
 16 17  1  0
 17 18  2  0
 18 19  1  0
 19 20  2  0
  2 21  1  0
  7 22  1  0
  8 23  1  0
  8 24  1  0
  8 25  1  0
 10 26  1  0
 11 27  1  0
 12 28  1  0
 13 29  1  0
 14 30  1  0
 16 31  1  0
 17 32  1  0
 19 33  1  0
 20 34  1  0
 35 36  1  0
 36 37  1  0
 37 38  1  0
 38 39  1  0
 39 40  1  0
 40 36  1  0
 36 41  1  0
 37 42  1  0
 37 43  1  0
 38 44  1  0
 38 45  1  0
 39 46  1  0
 39 47  1  0
 40 48  1  0
 40 49  1  0
 18 35  1  0
M  END
>  <attachment_point>  (279) 
32

>  <score>  (279) 
<NA>

$$$$
4djw
     RDKit          3D

 49 52  0  0  0  0  0  0  0  0999 V2000
   22.4950   11.8750   22.5810 C   0  0  0  0  0  0  0  0  0  0  0  0
   22.5380    9.4930   22.4640 N   0  0  0  0  0  0  0  0  0  0  0  0
   22.3600   13.0630   22.3480 O   0  0  0  0  0  0  0  0  0  0  0  0
   22.3390   10.6680   21.5610 C   0  0  0  0  0  0  0  0  0  0  0  0
   22.7860   11.3350   23.8120 N   0  0  0  0  0  0  0  0  0  0  0  0
   22.7800    9.9140   23.7010 C   0  0  0  0  0  0  0  0  0  0  0  0
   22.9970    9.1110   24.7490 N   0  0  0  0  0  0  0  0  0  0  0  0
   23.0220   12.1410   25.0180 C   0  0  0  0  0  0  0  0  0  0  0  0
   20.9020   10.6270   21.0050 C   0  0  0  0  0  0  0  0  0  0  0  0
   20.2720    9.4140   20.7470 C   0  0  0  0  0  0  0  0  0  0  0  0
   18.9690    9.3760   20.2600 C   0  0  0  0  0  0  0  0  0  0  0  0
   18.2800   10.5440   20.0210 C   0  0  0  0  0  0  0  0  0  0  0  0
   18.8920   11.7530   20.2590 C   0  0  0  0  0  0  0  0  0  0  0  0
   20.1950   11.7970   20.7440 C   0  0  0  0  0  0  0  0  0  0  0  0
   23.4880   10.6920   20.5300 C   0  0  0  0  0  0  0  0  0  0  0  0
   23.2110   10.7890   19.1730 C   0  0  0  0  0  0  0  0  0  0  0  0
   24.2350   10.8650   18.2430 C   0  0  0  0  0  0  0  0  0  0  0  0
   25.5500   10.8410   18.6560 C   0  0  0  0  0  0  0  0  0  0  0  0
   25.8710   10.7460   20.0070 C   0  0  0  0  0  0  0  0  0  0  0  0
   24.8260   10.6610   20.9430 C   0  0  0  0  0  0  0  0  0  0  0  0
    0.0000    0.0000    0.0000 H   0  0  0  0  0  0  0  0  0  0  0  0
    0.0000    0.0000    0.0000 H   0  0  0  0  0  0  0  0  0  0  0  0
    0.0000    0.0000    0.0000 H   0  0  0  0  0  0  0  0  0  0  0  0
    0.0000    0.0000    0.0000 H   0  0  0  0  0  0  0  0  0  0  0  0
    0.0000    0.0000    0.0000 H   0  0  0  0  0  0  0  0  0  0  0  0
    0.0000    0.0000    0.0000 H   0  0  0  0  0  0  0  0  0  0  0  0
    0.0000    0.0000    0.0000 H   0  0  0  0  0  0  0  0  0  0  0  0
    0.0000    0.0000    0.0000 H   0  0  0  0  0  0  0  0  0  0  0  0
    0.0000    0.0000    0.0000 H   0  0  0  0  0  0  0  0  0  0  0  0
    0.0000    0.0000    0.0000 H   0  0  0  0  0  0  0  0  0  0  0  0
    0.0000    0.0000    0.0000 H   0  0  0  0  0  0  0  0  0  0  0  0
    0.0000    0.0000    0.0000 H   0  0  0  0  0  0  0  0  0  0  0  0
    0.0000    0.0000    0.0000 H   0  0  0  0  0  0  0  0  0  0  0  0
    0.0000    0.0000    0.0000 H   0  0  0  0  0  0  0  0  0  0  0  0
   12.4617    5.2876    9.0992 C   0  0  0  0  0  0  0  0  0  0  0  0
   12.6498    4.2549    8.2027 C   0  0  0  0  0  0  0  0  0  0  0  0
   11.6070    3.7918    7.4219 C   0  0  0  0  0  0  0  0  0  0  0  0
   10.3816    4.4006    7.5760 C   0  0  0  0  0  0  0  0  0  0  0  0
   10.1816    5.4303    8.4659 C   0  0  0  0  0  0  0  0  0  0  0  0
    8.8272    6.0209    8.5599 C   0  0  0  0  0  0  0  0  0  0  0  0
    8.7753    7.0675    7.6259 O   0  0  0  0  0  0  0  0  0  0  0  0
   11.2244    5.8860    9.2397 C   0  0  0  0  0  0  0  0  0  0  0  0
   13.6053    3.7683    8.0712 H   0  0  0  0  0  0  0  0  0  0  0  0
   11.7236    2.9896    6.7154 H   0  0  0  0  0  0  0  0  0  0  0  0
    9.5435    4.0548    6.9732 H   0  0  0  0  0  0  0  0  0  0  0  0
    8.0963    5.2615    8.2243 H   0  0  0  0  0  0  0  0  0  0  0  0
    8.6016    6.3915    9.5872 H   0  0  0  0  0  0  0  0  0  0  0  0
    7.9030    7.0468    7.1318 H   0  0  0  0  0  0  0  0  0  0  0  0
   11.0894    6.7087    9.9591 H   0  0  0  0  0  0  0  0  0  0  0  0
  1  3  2  0
  1  4  1  0
  1  5  1  0
  2  4  1  0
  2  6  1  0
  4  9  1  0
  4 15  1  0
  5  6  1  0
  5  8  1  0
  6  7  2  3
  9 10  2  0
  9 14  1  0
 10 11  1  0
 11 12  2  0
 12 13  1  0
 13 14  2  0
 15 16  2  0
 15 20  1  0
 16 17  1  0
 17 18  2  0
 18 19  1  0
 19 20  2  0
  2 21  1  0
  7 22  1  0
  8 23  1  0
  8 24  1  0
  8 25  1  0
 10 26  1  0
 11 27  1  0
 12 28  1  0
 13 29  1  0
 14 30  1  0
 16 31  1  0
 17 32  1  0
 19 33  1  0
 20 34  1  0
 35 36  2  0
 36 37  1  0
 37 38  2  0
 38 39  1  0
 39 40  1  0
 40 41  1  0
 39 42  2  0
 42 35  1  0
 36 43  1  0
 37 44  1  0
 38 45  1  0
 40 46  1  0
 40 47  1  0
 41 48  1  0
 42 49  1  0
 18 35  1  0
M  END
>  <attachment_point>  (280) 
32

>  <score>  (280) 
<NA>

$$$$
4djw
     RDKit          3D

 49 52  0  0  0  0  0  0  0  0999 V2000
   22.4950   11.8750   22.5810 C   0  0  0  0  0  0  0  0  0  0  0  0
   22.5380    9.4930   22.4640 N   0  0  0  0  0  0  0  0  0  0  0  0
   22.3600   13.0630   22.3480 O   0  0  0  0  0  0  0  0  0  0  0  0
   22.3390   10.6680   21.5610 C   0  0  0  0  0  0  0  0  0  0  0  0
   22.7860   11.3350   23.8120 N   0  0  0  0  0  0  0  0  0  0  0  0
   22.7800    9.9140   23.7010 C   0  0  0  0  0  0  0  0  0  0  0  0
   22.9970    9.1110   24.7490 N   0  0  0  0  0  0  0  0  0  0  0  0
   23.0220   12.1410   25.0180 C   0  0  0  0  0  0  0  0  0  0  0  0
   20.9020   10.6270   21.0050 C   0  0  0  0  0  0  0  0  0  0  0  0
   20.2720    9.4140   20.7470 C   0  0  0  0  0  0  0  0  0  0  0  0
   18.9690    9.3760   20.2600 C   0  0  0  0  0  0  0  0  0  0  0  0
   18.2800   10.5440   20.0210 C   0  0  0  0  0  0  0  0  0  0  0  0
   18.8920   11.7530   20.2590 C   0  0  0  0  0  0  0  0  0  0  0  0
   20.1950   11.7970   20.7440 C   0  0  0  0  0  0  0  0  0  0  0  0
   23.4880   10.6920   20.5300 C   0  0  0  0  0  0  0  0  0  0  0  0
   23.2110   10.7890   19.1730 C   0  0  0  0  0  0  0  0  0  0  0  0
   24.2350   10.8650   18.2430 C   0  0  0  0  0  0  0  0  0  0  0  0
   25.5500   10.8410   18.6560 C   0  0  0  0  0  0  0  0  0  0  0  0
   25.8710   10.7460   20.0070 C   0  0  0  0  0  0  0  0  0  0  0  0
   24.8260   10.6610   20.9430 C   0  0  0  0  0  0  0  0  0  0  0  0
    0.0000    0.0000    0.0000 H   0  0  0  0  0  0  0  0  0  0  0  0
    0.0000    0.0000    0.0000 H   0  0  0  0  0  0  0  0  0  0  0  0
    0.0000    0.0000    0.0000 H   0  0  0  0  0  0  0  0  0  0  0  0
    0.0000    0.0000    0.0000 H   0  0  0  0  0  0  0  0  0  0  0  0
    0.0000    0.0000    0.0000 H   0  0  0  0  0  0  0  0  0  0  0  0
    0.0000    0.0000    0.0000 H   0  0  0  0  0  0  0  0  0  0  0  0
    0.0000    0.0000    0.0000 H   0  0  0  0  0  0  0  0  0  0  0  0
    0.0000    0.0000    0.0000 H   0  0  0  0  0  0  0  0  0  0  0  0
    0.0000    0.0000    0.0000 H   0  0  0  0  0  0  0  0  0  0  0  0
    0.0000    0.0000    0.0000 H   0  0  0  0  0  0  0  0  0  0  0  0
    0.0000    0.0000    0.0000 H   0  0  0  0  0  0  0  0  0  0  0  0
    0.0000    0.0000    0.0000 H   0  0  0  0  0  0  0  0  0  0  0  0
    0.0000    0.0000    0.0000 H   0  0  0  0  0  0  0  0  0  0  0  0
    0.0000    0.0000    0.0000 H   0  0  0  0  0  0  0  0  0  0  0  0
   12.4585    5.2862    9.0969 C   0  0  0  0  0  0  0  0  0  0  0  0
   12.7872    4.0449    8.4849 O   0  0  0  0  0  0  0  0  0  0  0  0
   13.8726    3.9493    7.6228 C   0  0  0  0  0  0  0  0  0  0  0  0
   14.1203    2.7007    7.0710 C   0  0  0  0  0  0  0  0  0  0  0  0
   15.1921    2.5509    6.2037 C   0  0  0  0  0  0  0  0  0  0  0  0
   15.9742    3.6529    5.9215 C   0  0  0  0  0  0  0  0  0  0  0  0
   15.7256    4.8795    6.4677 C   0  0  0  0  0  0  0  0  0  0  0  0
   14.6620    5.0370    7.3309 C   0  0  0  0  0  0  0  0  0  0  0  0
   11.6052    5.1076    9.7955 H   0  0  0  0  0  0  0  0  0  0  0  0
   12.1140    5.9947    8.3143 H   0  0  0  0  0  0  0  0  0  0  0  0
   13.4925    1.8602    7.3103 H   0  0  0  0  0  0  0  0  0  0  0  0
   15.3844    1.5826    5.7756 H   0  0  0  0  0  0  0  0  0  0  0  0
   16.8206    3.5360    5.2370 H   0  0  0  0  0  0  0  0  0  0  0  0
   16.3579    5.7459    6.2324 H   0  0  0  0  0  0  0  0  0  0  0  0
   14.4358    6.0000    7.7835 H   0  0  0  0  0  0  0  0  0  0  0  0
  1  3  2  0
  1  4  1  0
  1  5  1  0
  2  4  1  0
  2  6  1  0
  4  9  1  0
  4 15  1  0
  5  6  1  0
  5  8  1  0
  6  7  2  3
  9 10  2  0
  9 14  1  0
 10 11  1  0
 11 12  2  0
 12 13  1  0
 13 14  2  0
 15 16  2  0
 15 20  1  0
 16 17  1  0
 17 18  2  0
 18 19  1  0
 19 20  2  0
  2 21  1  0
  7 22  1  0
  8 23  1  0
  8 24  1  0
  8 25  1  0
 10 26  1  0
 11 27  1  0
 12 28  1  0
 13 29  1  0
 14 30  1  0
 16 31  1  0
 17 32  1  0
 19 33  1  0
 20 34  1  0
 35 36  1  0
 36 37  1  0
 37 38  2  0
 38 39  1  0
 39 40  2  0
 40 41  1  0
 41 42  2  0
 42 37  1  0
 35 43  1  0
 35 44  1  0
 38 45  1  0
 39 46  1  0
 40 47  1  0
 41 48  1  0
 42 49  1  0
 18 35  1  0
M  END
>  <attachment_point>  (281) 
32

>  <score>  (281) 
<NA>

$$$$
4djw
     RDKit          3D

 50 52  0  0  0  0  0  0  0  0999 V2000
   22.4950   11.8750   22.5810 C   0  0  0  0  0  0  0  0  0  0  0  0
   22.5380    9.4930   22.4640 N   0  0  0  0  0  0  0  0  0  0  0  0
   22.3600   13.0630   22.3480 O   0  0  0  0  0  0  0  0  0  0  0  0
   22.3390   10.6680   21.5610 C   0  0  0  0  0  0  0  0  0  0  0  0
   22.7860   11.3350   23.8120 N   0  0  0  0  0  0  0  0  0  0  0  0
   22.7800    9.9140   23.7010 C   0  0  0  0  0  0  0  0  0  0  0  0
   22.9970    9.1110   24.7490 N   0  0  0  0  0  0  0  0  0  0  0  0
   23.0220   12.1410   25.0180 C   0  0  0  0  0  0  0  0  0  0  0  0
   20.9020   10.6270   21.0050 C   0  0  0  0  0  0  0  0  0  0  0  0
   20.2720    9.4140   20.7470 C   0  0  0  0  0  0  0  0  0  0  0  0
   18.9690    9.3760   20.2600 C   0  0  0  0  0  0  0  0  0  0  0  0
   18.2800   10.5440   20.0210 C   0  0  0  0  0  0  0  0  0  0  0  0
   18.8920   11.7530   20.2590 C   0  0  0  0  0  0  0  0  0  0  0  0
   20.1950   11.7970   20.7440 C   0  0  0  0  0  0  0  0  0  0  0  0
   23.4880   10.6920   20.5300 C   0  0  0  0  0  0  0  0  0  0  0  0
   23.2110   10.7890   19.1730 C   0  0  0  0  0  0  0  0  0  0  0  0
   24.2350   10.8650   18.2430 C   0  0  0  0  0  0  0  0  0  0  0  0
   25.5500   10.8410   18.6560 C   0  0  0  0  0  0  0  0  0  0  0  0
   25.8710   10.7460   20.0070 C   0  0  0  0  0  0  0  0  0  0  0  0
   24.8260   10.6610   20.9430 C   0  0  0  0  0  0  0  0  0  0  0  0
    0.0000    0.0000    0.0000 H   0  0  0  0  0  0  0  0  0  0  0  0
    0.0000    0.0000    0.0000 H   0  0  0  0  0  0  0  0  0  0  0  0
    0.0000    0.0000    0.0000 H   0  0  0  0  0  0  0  0  0  0  0  0
    0.0000    0.0000    0.0000 H   0  0  0  0  0  0  0  0  0  0  0  0
    0.0000    0.0000    0.0000 H   0  0  0  0  0  0  0  0  0  0  0  0
    0.0000    0.0000    0.0000 H   0  0  0  0  0  0  0  0  0  0  0  0
    0.0000    0.0000    0.0000 H   0  0  0  0  0  0  0  0  0  0  0  0
    0.0000    0.0000    0.0000 H   0  0  0  0  0  0  0  0  0  0  0  0
    0.0000    0.0000    0.0000 H   0  0  0  0  0  0  0  0  0  0  0  0
    0.0000    0.0000    0.0000 H   0  0  0  0  0  0  0  0  0  0  0  0
    0.0000    0.0000    0.0000 H   0  0  0  0  0  0  0  0  0  0  0  0
    0.0000    0.0000    0.0000 H   0  0  0  0  0  0  0  0  0  0  0  0
    0.0000    0.0000    0.0000 H   0  0  0  0  0  0  0  0  0  0  0  0
    0.0000    0.0000    0.0000 H   0  0  0  0  0  0  0  0  0  0  0  0
   12.4529    5.2838    9.0928 C   0  0  0  0  0  0  0  0  0  0  0  0
   11.2755    6.2232    9.1953 C   0  0  0  0  0  0  0  0  0  0  0  0
   10.7661    6.3652   10.5951 C   0  0  0  0  0  0  0  0  0  0  0  0
   11.7992    6.9010   11.5523 C   0  0  0  0  0  0  0  0  0  0  0  0
    9.6190    7.3564   10.5700 C   0  0  0  0  0  0  0  0  0  0  0  0
   12.1813    4.2535    9.3983 H   0  0  0  0  0  0  0  0  0  0  0  0
   12.7694    5.2156    8.0322 H   0  0  0  0  0  0  0  0  0  0  0  0
   10.4596    5.7822    8.5864 H   0  0  0  0  0  0  0  0  0  0  0  0
   11.5253    7.2022    8.7409 H   0  0  0  0  0  0  0  0  0  0  0  0
   10.3760    5.4204   10.9840 H   0  0  0  0  0  0  0  0  0  0  0  0
   11.2508    7.4350   12.3559 H   0  0  0  0  0  0  0  0  0  0  0  0
   12.4273    6.1335   12.0021 H   0  0  0  0  0  0  0  0  0  0  0  0
   12.3894    7.6888   11.0033 H   0  0  0  0  0  0  0  0  0  0  0  0
    9.7967    8.2241   11.2482 H   0  0  0  0  0  0  0  0  0  0  0  0
    8.6714    6.8930   10.9083 H   0  0  0  0  0  0  0  0  0  0  0  0
    9.4854    7.8116    9.5535 H   0  0  0  0  0  0  0  0  0  0  0  0
  1  3  2  0
  1  4  1  0
  1  5  1  0
  2  4  1  0
  2  6  1  0
  4  9  1  0
  4 15  1  0
  5  6  1  0
  5  8  1  0
  6  7  2  3
  9 10  2  0
  9 14  1  0
 10 11  1  0
 11 12  2  0
 12 13  1  0
 13 14  2  0
 15 16  2  0
 15 20  1  0
 16 17  1  0
 17 18  2  0
 18 19  1  0
 19 20  2  0
  2 21  1  0
  7 22  1  0
  8 23  1  0
  8 24  1  0
  8 25  1  0
 10 26  1  0
 11 27  1  0
 12 28  1  0
 13 29  1  0
 14 30  1  0
 16 31  1  0
 17 32  1  0
 19 33  1  0
 20 34  1  0
 35 36  1  0
 36 37  1  0
 37 38  1  0
 37 39  1  0
 35 40  1  0
 35 41  1  0
 36 42  1  0
 36 43  1  0
 37 44  1  0
 38 45  1  0
 38 46  1  0
 38 47  1  0
 39 48  1  0
 39 49  1  0
 39 50  1  0
 18 35  1  0
M  END
>  <attachment_point>  (282) 
32

>  <score>  (282) 
<NA>

$$$$
4djw
     RDKit          3D

 48 51  0  0  0  0  0  0  0  0999 V2000
   22.4950   11.8750   22.5810 C   0  0  0  0  0  0  0  0  0  0  0  0
   22.5380    9.4930   22.4640 N   0  0  0  0  0  0  0  0  0  0  0  0
   22.3600   13.0630   22.3480 O   0  0  0  0  0  0  0  0  0  0  0  0
   22.3390   10.6680   21.5610 C   0  0  0  0  0  0  0  0  0  0  0  0
   22.7860   11.3350   23.8120 N   0  0  0  0  0  0  0  0  0  0  0  0
   22.7800    9.9140   23.7010 C   0  0  0  0  0  0  0  0  0  0  0  0
   22.9970    9.1110   24.7490 N   0  0  0  0  0  0  0  0  0  0  0  0
   23.0220   12.1410   25.0180 C   0  0  0  0  0  0  0  0  0  0  0  0
   20.9020   10.6270   21.0050 C   0  0  0  0  0  0  0  0  0  0  0  0
   20.2720    9.4140   20.7470 C   0  0  0  0  0  0  0  0  0  0  0  0
   18.9690    9.3760   20.2600 C   0  0  0  0  0  0  0  0  0  0  0  0
   18.2800   10.5440   20.0210 C   0  0  0  0  0  0  0  0  0  0  0  0
   18.8920   11.7530   20.2590 C   0  0  0  0  0  0  0  0  0  0  0  0
   20.1950   11.7970   20.7440 C   0  0  0  0  0  0  0  0  0  0  0  0
   23.4880   10.6920   20.5300 C   0  0  0  0  0  0  0  0  0  0  0  0
   23.2110   10.7890   19.1730 C   0  0  0  0  0  0  0  0  0  0  0  0
   24.2350   10.8650   18.2430 C   0  0  0  0  0  0  0  0  0  0  0  0
   25.5500   10.8410   18.6560 C   0  0  0  0  0  0  0  0  0  0  0  0
   25.8710   10.7460   20.0070 C   0  0  0  0  0  0  0  0  0  0  0  0
   24.8260   10.6610   20.9430 C   0  0  0  0  0  0  0  0  0  0  0  0
    0.0000    0.0000    0.0000 H   0  0  0  0  0  0  0  0  0  0  0  0
    0.0000    0.0000    0.0000 H   0  0  0  0  0  0  0  0  0  0  0  0
    0.0000    0.0000    0.0000 H   0  0  0  0  0  0  0  0  0  0  0  0
    0.0000    0.0000    0.0000 H   0  0  0  0  0  0  0  0  0  0  0  0
    0.0000    0.0000    0.0000 H   0  0  0  0  0  0  0  0  0  0  0  0
    0.0000    0.0000    0.0000 H   0  0  0  0  0  0  0  0  0  0  0  0
    0.0000    0.0000    0.0000 H   0  0  0  0  0  0  0  0  0  0  0  0
    0.0000    0.0000    0.0000 H   0  0  0  0  0  0  0  0  0  0  0  0
    0.0000    0.0000    0.0000 H   0  0  0  0  0  0  0  0  0  0  0  0
    0.0000    0.0000    0.0000 H   0  0  0  0  0  0  0  0  0  0  0  0
    0.0000    0.0000    0.0000 H   0  0  0  0  0  0  0  0  0  0  0  0
    0.0000    0.0000    0.0000 H   0  0  0  0  0  0  0  0  0  0  0  0
    0.0000    0.0000    0.0000 H   0  0  0  0  0  0  0  0  0  0  0  0
    0.0000    0.0000    0.0000 H   0  0  0  0  0  0  0  0  0  0  0  0
   12.4576    5.2858    9.0962 N   0  0  0  0  0  0  0  0  0  0  0  0
   12.8219    4.8259    7.8100 C   0  0  0  0  0  0  0  0  0  0  0  0
   14.0478    4.8483    7.4481 O   0  0  0  0  0  0  0  0  0  0  0  0
   11.7816    4.3361    6.9282 C   0  0  0  0  0  0  0  0  0  0  0  0
   10.4466    4.2870    7.2602 C   0  0  0  0  0  0  0  0  0  0  0  0
    9.4664    3.8144    6.4011 C   0  0  0  0  0  0  0  0  0  0  0  0
    9.8461    3.3720    5.1542 C   0  0  0  0  0  0  0  0  0  0  0  0
   11.1449    3.4088    4.8037 N   0  0  0  0  0  0  0  0  0  0  0  0
   12.0865    3.8683    5.6425 C   0  0  0  0  0  0  0  0  0  0  0  0
   11.5025    5.3151    9.4963 H   0  0  0  0  0  0  0  0  0  0  0  0
   10.1232    4.6281    8.2320 H   0  0  0  0  0  0  0  0  0  0  0  0
    8.4256    3.7845    6.6811 H   0  0  0  0  0  0  0  0  0  0  0  0
    9.0770    2.9953    4.4652 H   0  0  0  0  0  0  0  0  0  0  0  0
   13.1368    3.8895    5.3374 H   0  0  0  0  0  0  0  0  0  0  0  0
  1  3  2  0
  1  4  1  0
  1  5  1  0
  2  4  1  0
  2  6  1  0
  4  9  1  0
  4 15  1  0
  5  6  1  0
  5  8  1  0
  6  7  2  3
  9 10  2  0
  9 14  1  0
 10 11  1  0
 11 12  2  0
 12 13  1  0
 13 14  2  0
 15 16  2  0
 15 20  1  0
 16 17  1  0
 17 18  2  0
 18 19  1  0
 19 20  2  0
  2 21  1  0
  7 22  1  0
  8 23  1  0
  8 24  1  0
  8 25  1  0
 10 26  1  0
 11 27  1  0
 12 28  1  0
 13 29  1  0
 14 30  1  0
 16 31  1  0
 17 32  1  0
 19 33  1  0
 20 34  1  0
 35 36  1  0
 36 37  2  0
 36 38  1  0
 38 39  2  0
 39 40  1  0
 40 41  2  0
 41 42  1  0
 42 43  2  0
 43 38  1  0
 35 44  1  0
 39 45  1  0
 40 46  1  0
 41 47  1  0
 43 48  1  0
 18 35  1  0
M  END
>  <attachment_point>  (283) 
32

>  <score>  (283) 
<NA>

$$$$
4djw
     RDKit          3D

 44 46  0  0  0  0  0  0  0  0999 V2000
   22.4950   11.8750   22.5810 C   0  0  0  0  0  0  0  0  0  0  0  0
   22.5380    9.4930   22.4640 N   0  0  0  0  0  0  0  0  0  0  0  0
   22.3600   13.0630   22.3480 O   0  0  0  0  0  0  0  0  0  0  0  0
   22.3390   10.6680   21.5610 C   0  0  0  0  0  0  0  0  0  0  0  0
   22.7860   11.3350   23.8120 N   0  0  0  0  0  0  0  0  0  0  0  0
   22.7800    9.9140   23.7010 C   0  0  0  0  0  0  0  0  0  0  0  0
   22.9970    9.1110   24.7490 N   0  0  0  0  0  0  0  0  0  0  0  0
   23.0220   12.1410   25.0180 C   0  0  0  0  0  0  0  0  0  0  0  0
   20.9020   10.6270   21.0050 C   0  0  0  0  0  0  0  0  0  0  0  0
   20.2720    9.4140   20.7470 C   0  0  0  0  0  0  0  0  0  0  0  0
   18.9690    9.3760   20.2600 C   0  0  0  0  0  0  0  0  0  0  0  0
   18.2800   10.5440   20.0210 C   0  0  0  0  0  0  0  0  0  0  0  0
   18.8920   11.7530   20.2590 C   0  0  0  0  0  0  0  0  0  0  0  0
   20.1950   11.7970   20.7440 C   0  0  0  0  0  0  0  0  0  0  0  0
   23.4880   10.6920   20.5300 C   0  0  0  0  0  0  0  0  0  0  0  0
   23.2110   10.7890   19.1730 C   0  0  0  0  0  0  0  0  0  0  0  0
   24.2350   10.8650   18.2430 C   0  0  0  0  0  0  0  0  0  0  0  0
   25.5500   10.8410   18.6560 C   0  0  0  0  0  0  0  0  0  0  0  0
   25.8710   10.7460   20.0070 C   0  0  0  0  0  0  0  0  0  0  0  0
   24.8260   10.6610   20.9430 C   0  0  0  0  0  0  0  0  0  0  0  0
    0.0000    0.0000    0.0000 H   0  0  0  0  0  0  0  0  0  0  0  0
    0.0000    0.0000    0.0000 H   0  0  0  0  0  0  0  0  0  0  0  0
    0.0000    0.0000    0.0000 H   0  0  0  0  0  0  0  0  0  0  0  0
    0.0000    0.0000    0.0000 H   0  0  0  0  0  0  0  0  0  0  0  0
    0.0000    0.0000    0.0000 H   0  0  0  0  0  0  0  0  0  0  0  0
    0.0000    0.0000    0.0000 H   0  0  0  0  0  0  0  0  0  0  0  0
    0.0000    0.0000    0.0000 H   0  0  0  0  0  0  0  0  0  0  0  0
    0.0000    0.0000    0.0000 H   0  0  0  0  0  0  0  0  0  0  0  0
    0.0000    0.0000    0.0000 H   0  0  0  0  0  0  0  0  0  0  0  0
    0.0000    0.0000    0.0000 H   0  0  0  0  0  0  0  0  0  0  0  0
    0.0000    0.0000    0.0000 H   0  0  0  0  0  0  0  0  0  0  0  0
    0.0000    0.0000    0.0000 H   0  0  0  0  0  0  0  0  0  0  0  0
    0.0000    0.0000    0.0000 H   0  0  0  0  0  0  0  0  0  0  0  0
    0.0000    0.0000    0.0000 H   0  0  0  0  0  0  0  0  0  0  0  0
   12.4342    5.2759    9.0792 S   0  0  0  0  0  6  0  0  0  0  0  0
   11.1371    5.9966    9.4035 O   0  0  0  0  0  0  0  0  0  0  0  0
   12.2098    3.8375    9.4474 O   0  0  0  0  0  0  0  0  0  0  0  0
   12.7312    5.4241    7.3407 C   0  0  0  0  0  0  0  0  0  0  0  0
   12.9768    6.8575    6.9286 C   0  0  0  0  0  0  0  0  0  0  0  0
   11.8240    5.0846    6.8015 H   0  0  0  0  0  0  0  0  0  0  0  0
   13.5977    4.8143    7.0348 H   0  0  0  0  0  0  0  0  0  0  0  0
   12.9106    6.8749    5.8059 H   0  0  0  0  0  0  0  0  0  0  0  0
   13.9618    7.2313    7.2754 H   0  0  0  0  0  0  0  0  0  0  0  0
   12.1996    7.5411    7.2849 H   0  0  0  0  0  0  0  0  0  0  0  0
  1  3  2  0
  1  4  1  0
  1  5  1  0
  2  4  1  0
  2  6  1  0
  4  9  1  0
  4 15  1  0
  5  6  1  0
  5  8  1  0
  6  7  2  3
  9 10  2  0
  9 14  1  0
 10 11  1  0
 11 12  2  0
 12 13  1  0
 13 14  2  0
 15 16  2  0
 15 20  1  0
 16 17  1  0
 17 18  2  0
 18 19  1  0
 19 20  2  0
  2 21  1  0
  7 22  1  0
  8 23  1  0
  8 24  1  0
  8 25  1  0
 10 26  1  0
 11 27  1  0
 12 28  1  0
 13 29  1  0
 14 30  1  0
 16 31  1  0
 17 32  1  0
 19 33  1  0
 20 34  1  0
 35 36  2  0
 35 37  2  0
 35 38  1  0
 38 39  1  0
 38 40  1  0
 38 41  1  0
 39 42  1  0
 39 43  1  0
 39 44  1  0
 18 35  1  0
M  END
>  <attachment_point>  (284) 
32

>  <score>  (284) 
<NA>

$$$$
4djw
     RDKit          3D

 52 54  0  0  0  0  0  0  0  0999 V2000
   22.4950   11.8750   22.5810 C   0  0  0  0  0  0  0  0  0  0  0  0
   22.5380    9.4930   22.4640 N   0  0  0  0  0  0  0  0  0  0  0  0
   22.3600   13.0630   22.3480 O   0  0  0  0  0  0  0  0  0  0  0  0
   22.3390   10.6680   21.5610 C   0  0  0  0  0  0  0  0  0  0  0  0
   22.7860   11.3350   23.8120 N   0  0  0  0  0  0  0  0  0  0  0  0
   22.7800    9.9140   23.7010 C   0  0  0  0  0  0  0  0  0  0  0  0
   22.9970    9.1110   24.7490 N   0  0  0  0  0  0  0  0  0  0  0  0
   23.0220   12.1410   25.0180 C   0  0  0  0  0  0  0  0  0  0  0  0
   20.9020   10.6270   21.0050 C   0  0  0  0  0  0  0  0  0  0  0  0
   20.2720    9.4140   20.7470 C   0  0  0  0  0  0  0  0  0  0  0  0
   18.9690    9.3760   20.2600 C   0  0  0  0  0  0  0  0  0  0  0  0
   18.2800   10.5440   20.0210 C   0  0  0  0  0  0  0  0  0  0  0  0
   18.8920   11.7530   20.2590 C   0  0  0  0  0  0  0  0  0  0  0  0
   20.1950   11.7970   20.7440 C   0  0  0  0  0  0  0  0  0  0  0  0
   23.4880   10.6920   20.5300 C   0  0  0  0  0  0  0  0  0  0  0  0
   23.2110   10.7890   19.1730 C   0  0  0  0  0  0  0  0  0  0  0  0
   24.2350   10.8650   18.2430 C   0  0  0  0  0  0  0  0  0  0  0  0
   25.5500   10.8410   18.6560 C   0  0  0  0  0  0  0  0  0  0  0  0
   25.8710   10.7460   20.0070 C   0  0  0  0  0  0  0  0  0  0  0  0
   24.8260   10.6610   20.9430 C   0  0  0  0  0  0  0  0  0  0  0  0
    0.0000    0.0000    0.0000 H   0  0  0  0  0  0  0  0  0  0  0  0
    0.0000    0.0000    0.0000 H   0  0  0  0  0  0  0  0  0  0  0  0
    0.0000    0.0000    0.0000 H   0  0  0  0  0  0  0  0  0  0  0  0
    0.0000    0.0000    0.0000 H   0  0  0  0  0  0  0  0  0  0  0  0
    0.0000    0.0000    0.0000 H   0  0  0  0  0  0  0  0  0  0  0  0
    0.0000    0.0000    0.0000 H   0  0  0  0  0  0  0  0  0  0  0  0
    0.0000    0.0000    0.0000 H   0  0  0  0  0  0  0  0  0  0  0  0
    0.0000    0.0000    0.0000 H   0  0  0  0  0  0  0  0  0  0  0  0
    0.0000    0.0000    0.0000 H   0  0  0  0  0  0  0  0  0  0  0  0
    0.0000    0.0000    0.0000 H   0  0  0  0  0  0  0  0  0  0  0  0
    0.0000    0.0000    0.0000 H   0  0  0  0  0  0  0  0  0  0  0  0
    0.0000    0.0000    0.0000 H   0  0  0  0  0  0  0  0  0  0  0  0
    0.0000    0.0000    0.0000 H   0  0  0  0  0  0  0  0  0  0  0  0
    0.0000    0.0000    0.0000 H   0  0  0  0  0  0  0  0  0  0  0  0
   12.3531    5.2415    9.0199 N   0  0  0  0  0  0  0  0  0  0  0  0
   11.1719    5.6474    9.5639 C   0  0  0  0  0  0  0  0  0  0  0  0
   11.1036    6.3253   10.6100 O   0  0  0  0  0  0  0  0  0  0  0  0
    9.9459    5.3548    9.0216 O   0  0  0  0  0  0  0  0  0  0  0  0
    8.7008    5.6479    9.3852 C   0  0  0  0  0  0  0  0  0  0  0  0
    8.1971    7.0222    9.5189 C   0  0  0  0  0  0  0  0  0  0  0  0
    7.7849    4.9316    8.3643 C   0  0  0  0  0  0  0  0  0  0  0  0
    8.4026    4.9040   10.7020 C   0  0  0  0  0  0  0  0  0  0  0  0
   12.6520    4.7466    8.2740 H   0  0  0  0  0  0  0  0  0  0  0  0
    7.5216    7.1362   10.3959 H   0  0  0  0  0  0  0  0  0  0  0  0
    8.9434    7.8218    9.6086 H   0  0  0  0  0  0  0  0  0  0  0  0
    7.5541    7.3259    8.6428 H   0  0  0  0  0  0  0  0  0  0  0  0
    8.2244    3.9852    8.0349 H   0  0  0  0  0  0  0  0  0  0  0  0
    7.8009    5.6192    7.4688 H   0  0  0  0  0  0  0  0  0  0  0  0
    6.7577    4.8647    8.7367 H   0  0  0  0  0  0  0  0  0  0  0  0
    9.1493    4.1443   10.9148 H   0  0  0  0  0  0  0  0  0  0  0  0
    8.4446    5.6552   11.5418 H   0  0  0  0  0  0  0  0  0  0  0  0
    7.3593    4.5257   10.7116 H   0  0  0  0  0  0  0  0  0  0  0  0
  1  3  2  0
  1  4  1  0
  1  5  1  0
  2  4  1  0
  2  6  1  0
  4  9  1  0
  4 15  1  0
  5  6  1  0
  5  8  1  0
  6  7  2  3
  9 10  2  0
  9 14  1  0
 10 11  1  0
 11 12  2  0
 12 13  1  0
 13 14  2  0
 15 16  2  0
 15 20  1  0
 16 17  1  0
 17 18  2  0
 18 19  1  0
 19 20  2  0
  2 21  1  0
  7 22  1  0
  8 23  1  0
  8 24  1  0
  8 25  1  0
 10 26  1  0
 11 27  1  0
 12 28  1  0
 13 29  1  0
 14 30  1  0
 16 31  1  0
 17 32  1  0
 19 33  1  0
 20 34  1  0
 35 36  1  0
 36 37  2  0
 36 38  1  0
 38 39  1  0
 39 40  1  0
 39 41  1  0
 39 42  1  0
 35 43  1  0
 40 44  1  0
 40 45  1  0
 40 46  1  0
 41 47  1  0
 41 48  1  0
 41 49  1  0
 42 50  1  0
 42 51  1  0
 42 52  1  0
 18 35  1  0
M  END
>  <attachment_point>  (285) 
32

>  <score>  (285) 
<NA>

$$$$
4djw
     RDKit          3D

 50 53  0  0  0  0  0  0  0  0999 V2000
   22.4950   11.8750   22.5810 C   0  0  0  0  0  0  0  0  0  0  0  0
   22.5380    9.4930   22.4640 N   0  0  0  0  0  0  0  0  0  0  0  0
   22.3600   13.0630   22.3480 O   0  0  0  0  0  0  0  0  0  0  0  0
   22.3390   10.6680   21.5610 C   0  0  0  0  0  0  0  0  0  0  0  0
   22.7860   11.3350   23.8120 N   0  0  0  0  0  0  0  0  0  0  0  0
   22.7800    9.9140   23.7010 C   0  0  0  0  0  0  0  0  0  0  0  0
   22.9970    9.1110   24.7490 N   0  0  0  0  0  0  0  0  0  0  0  0
   23.0220   12.1410   25.0180 C   0  0  0  0  0  0  0  0  0  0  0  0
   20.9020   10.6270   21.0050 C   0  0  0  0  0  0  0  0  0  0  0  0
   20.2720    9.4140   20.7470 C   0  0  0  0  0  0  0  0  0  0  0  0
   18.9690    9.3760   20.2600 C   0  0  0  0  0  0  0  0  0  0  0  0
   18.2800   10.5440   20.0210 C   0  0  0  0  0  0  0  0  0  0  0  0
   18.8920   11.7530   20.2590 C   0  0  0  0  0  0  0  0  0  0  0  0
   20.1950   11.7970   20.7440 C   0  0  0  0  0  0  0  0  0  0  0  0
   23.4880   10.6920   20.5300 C   0  0  0  0  0  0  0  0  0  0  0  0
   23.2110   10.7890   19.1730 C   0  0  0  0  0  0  0  0  0  0  0  0
   24.2350   10.8650   18.2430 C   0  0  0  0  0  0  0  0  0  0  0  0
   25.5500   10.8410   18.6560 C   0  0  0  0  0  0  0  0  0  0  0  0
   25.8710   10.7460   20.0070 C   0  0  0  0  0  0  0  0  0  0  0  0
   24.8260   10.6610   20.9430 C   0  0  0  0  0  0  0  0  0  0  0  0
    0.0000    0.0000    0.0000 H   0  0  0  0  0  0  0  0  0  0  0  0
    0.0000    0.0000    0.0000 H   0  0  0  0  0  0  0  0  0  0  0  0
    0.0000    0.0000    0.0000 H   0  0  0  0  0  0  0  0  0  0  0  0
    0.0000    0.0000    0.0000 H   0  0  0  0  0  0  0  0  0  0  0  0
    0.0000    0.0000    0.0000 H   0  0  0  0  0  0  0  0  0  0  0  0
    0.0000    0.0000    0.0000 H   0  0  0  0  0  0  0  0  0  0  0  0
    0.0000    0.0000    0.0000 H   0  0  0  0  0  0  0  0  0  0  0  0
    0.0000    0.0000    0.0000 H   0  0  0  0  0  0  0  0  0  0  0  0
    0.0000    0.0000    0.0000 H   0  0  0  0  0  0  0  0  0  0  0  0
    0.0000    0.0000    0.0000 H   0  0  0  0  0  0  0  0  0  0  0  0
    0.0000    0.0000    0.0000 H   0  0  0  0  0  0  0  0  0  0  0  0
    0.0000    0.0000    0.0000 H   0  0  0  0  0  0  0  0  0  0  0  0
    0.0000    0.0000    0.0000 H   0  0  0  0  0  0  0  0  0  0  0  0
    0.0000    0.0000    0.0000 H   0  0  0  0  0  0  0  0  0  0  0  0
   12.5253    5.3146    9.1457 O   0  0  0  0  0  0  0  0  0  0  0  0
   12.1105    6.0620    8.0379 C   0  0  0  0  0  0  0  0  0  0  0  0
   10.9622    5.3204    7.4212 C   0  0  2  0  0  0  0  0  0  0  0  0
   11.3852    3.9874    6.8454 C   0  0  0  0  0  0  0  0  0  0  0  0
   10.2603    3.7334    5.8440 C   0  0  0  0  0  0  0  0  0  0  0  0
    9.4555    5.0181    5.9296 C   0  0  0  0  0  0  0  0  0  0  0  0
   10.4430    5.9574    6.2950 O   0  0  0  0  0  0  0  0  0  0  0  0
   12.9240    6.2794    7.3354 H   0  0  0  0  0  0  0  0  0  0  0  0
   11.7321    7.0283    8.4150 H   0  0  0  0  0  0  0  0  0  0  0  0
   10.1787    5.1869    8.1698 H   0  0  0  0  0  0  0  0  0  0  0  0
   11.3696    3.1692    7.5680 H   0  0  0  0  0  0  0  0  0  0  0  0
   12.3428    4.0751    6.2889 H   0  0  0  0  0  0  0  0  0  0  0  0
   10.6329    3.6155    4.8193 H   0  0  0  0  0  0  0  0  0  0  0  0
    9.6363    2.8485    6.1631 H   0  0  0  0  0  0  0  0  0  0  0  0
    8.9536    5.2774    4.9996 H   0  0  0  0  0  0  0  0  0  0  0  0
    8.7632    4.9823    6.8159 H   0  0  0  0  0  0  0  0  0  0  0  0
  1  3  2  0
  1  4  1  0
  1  5  1  0
  2  4  1  0
  2  6  1  0
  4  9  1  0
  4 15  1  0
  5  6  1  0
  5  8  1  0
  6  7  2  3
  9 10  2  0
  9 14  1  0
 10 11  1  0
 11 12  2  0
 12 13  1  0
 13 14  2  0
 15 16  2  0
 15 20  1  0
 16 17  1  0
 17 18  2  0
 18 19  1  0
 19 20  2  0
  2 21  1  0
  7 22  1  0
  8 23  1  0
  8 24  1  0
  8 25  1  0
 10 26  1  0
 11 27  1  0
 12 28  1  0
 13 29  1  0
 14 30  1  0
 16 31  1  0
 17 32  1  0
 19 33  1  0
 20 34  1  0
 35 36  1  0
 36 37  1  0
 37 38  1  0
 38 39  1  0
 39 40  1  0
 40 41  1  0
 41 37  1  0
 36 42  1  0
 36 43  1  0
 37 44  1  1
 38 45  1  0
 38 46  1  0
 39 47  1  0
 39 48  1  0
 40 49  1  0
 40 50  1  0
 18 35  1  0
M  END
>  <attachment_point>  (286) 
32

>  <score>  (286) 
<NA>

$$$$
4djw
     RDKit          3D

 47 50  0  0  0  0  0  0  0  0999 V2000
   22.4950   11.8750   22.5810 C   0  0  0  0  0  0  0  0  0  0  0  0
   22.5380    9.4930   22.4640 N   0  0  0  0  0  0  0  0  0  0  0  0
   22.3600   13.0630   22.3480 O   0  0  0  0  0  0  0  0  0  0  0  0
   22.3390   10.6680   21.5610 C   0  0  0  0  0  0  0  0  0  0  0  0
   22.7860   11.3350   23.8120 N   0  0  0  0  0  0  0  0  0  0  0  0
   22.7800    9.9140   23.7010 C   0  0  0  0  0  0  0  0  0  0  0  0
   22.9970    9.1110   24.7490 N   0  0  0  0  0  0  0  0  0  0  0  0
   23.0220   12.1410   25.0180 C   0  0  0  0  0  0  0  0  0  0  0  0
   20.9020   10.6270   21.0050 C   0  0  0  0  0  0  0  0  0  0  0  0
   20.2720    9.4140   20.7470 C   0  0  0  0  0  0  0  0  0  0  0  0
   18.9690    9.3760   20.2600 C   0  0  0  0  0  0  0  0  0  0  0  0
   18.2800   10.5440   20.0210 C   0  0  0  0  0  0  0  0  0  0  0  0
   18.8920   11.7530   20.2590 C   0  0  0  0  0  0  0  0  0  0  0  0
   20.1950   11.7970   20.7440 C   0  0  0  0  0  0  0  0  0  0  0  0
   23.4880   10.6920   20.5300 C   0  0  0  0  0  0  0  0  0  0  0  0
   23.2110   10.7890   19.1730 C   0  0  0  0  0  0  0  0  0  0  0  0
   24.2350   10.8650   18.2430 C   0  0  0  0  0  0  0  0  0  0  0  0
   25.5500   10.8410   18.6560 C   0  0  0  0  0  0  0  0  0  0  0  0
   25.8710   10.7460   20.0070 C   0  0  0  0  0  0  0  0  0  0  0  0
   24.8260   10.6610   20.9430 C   0  0  0  0  0  0  0  0  0  0  0  0
    0.0000    0.0000    0.0000 H   0  0  0  0  0  0  0  0  0  0  0  0
    0.0000    0.0000    0.0000 H   0  0  0  0  0  0  0  0  0  0  0  0
    0.0000    0.0000    0.0000 H   0  0  0  0  0  0  0  0  0  0  0  0
    0.0000    0.0000    0.0000 H   0  0  0  0  0  0  0  0  0  0  0  0
    0.0000    0.0000    0.0000 H   0  0  0  0  0  0  0  0  0  0  0  0
    0.0000    0.0000    0.0000 H   0  0  0  0  0  0  0  0  0  0  0  0
    0.0000    0.0000    0.0000 H   0  0  0  0  0  0  0  0  0  0  0  0
    0.0000    0.0000    0.0000 H   0  0  0  0  0  0  0  0  0  0  0  0
    0.0000    0.0000    0.0000 H   0  0  0  0  0  0  0  0  0  0  0  0
    0.0000    0.0000    0.0000 H   0  0  0  0  0  0  0  0  0  0  0  0
    0.0000    0.0000    0.0000 H   0  0  0  0  0  0  0  0  0  0  0  0
    0.0000    0.0000    0.0000 H   0  0  0  0  0  0  0  0  0  0  0  0
    0.0000    0.0000    0.0000 H   0  0  0  0  0  0  0  0  0  0  0  0
    0.0000    0.0000    0.0000 H   0  0  0  0  0  0  0  0  0  0  0  0
   12.4672    5.2899    9.1032 C   0  0  0  0  0  0  0  0  0  0  0  0
   11.9909    3.9882    9.2298 C   0  0  0  0  0  0  0  0  0  0  0  0
   10.9326    3.6111    8.4260 C   0  0  0  0  0  0  0  0  0  0  0  0
   10.3396    4.4694    7.5144 C   0  0  0  0  0  0  0  0  0  0  0  0
    9.2113    4.0755    6.6540 C   0  0  0  0  0  0  0  0  0  0  0  0
   10.8382    5.7160    7.4321 N   0  0  0  0  0  0  0  0  0  0  0  0
   11.8677    6.1362    8.1909 C   0  0  0  0  0  0  0  0  0  0  0  0
   12.4503    3.3100    9.9418 H   0  0  0  0  0  0  0  0  0  0  0  0
   10.5418    2.6116    8.5003 H   0  0  0  0  0  0  0  0  0  0  0  0
    8.3047    4.7130    6.8646 H   0  0  0  0  0  0  0  0  0  0  0  0
    9.4063    4.2034    5.5738 H   0  0  0  0  0  0  0  0  0  0  0  0
    8.9245    3.0193    6.8783 H   0  0  0  0  0  0  0  0  0  0  0  0
   12.2274    7.1701    8.0733 H   0  0  0  0  0  0  0  0  0  0  0  0
  1  3  2  0
  1  4  1  0
  1  5  1  0
  2  4  1  0
  2  6  1  0
  4  9  1  0
  4 15  1  0
  5  6  1  0
  5  8  1  0
  6  7  2  3
  9 10  2  0
  9 14  1  0
 10 11  1  0
 11 12  2  0
 12 13  1  0
 13 14  2  0
 15 16  2  0
 15 20  1  0
 16 17  1  0
 17 18  2  0
 18 19  1  0
 19 20  2  0
  2 21  1  0
  7 22  1  0
  8 23  1  0
  8 24  1  0
  8 25  1  0
 10 26  1  0
 11 27  1  0
 12 28  1  0
 13 29  1  0
 14 30  1  0
 16 31  1  0
 17 32  1  0
 19 33  1  0
 20 34  1  0
 35 36  2  0
 36 37  1  0
 37 38  2  0
 38 39  1  0
 38 40  1  0
 40 41  2  0
 41 35  1  0
 36 42  1  0
 37 43  1  0
 39 44  1  0
 39 45  1  0
 39 46  1  0
 41 47  1  0
 18 35  1  0
M  END
>  <attachment_point>  (287) 
32

>  <score>  (287) 
<NA>

$$$$
4djw
     RDKit          3D

 49 53  0  0  0  0  0  0  0  0999 V2000
   22.4950   11.8750   22.5810 C   0  0  0  0  0  0  0  0  0  0  0  0
   22.5380    9.4930   22.4640 N   0  0  0  0  0  0  0  0  0  0  0  0
   22.3600   13.0630   22.3480 O   0  0  0  0  0  0  0  0  0  0  0  0
   22.3390   10.6680   21.5610 C   0  0  0  0  0  0  0  0  0  0  0  0
   22.7860   11.3350   23.8120 N   0  0  0  0  0  0  0  0  0  0  0  0
   22.7800    9.9140   23.7010 C   0  0  0  0  0  0  0  0  0  0  0  0
   22.9970    9.1110   24.7490 N   0  0  0  0  0  0  0  0  0  0  0  0
   23.0220   12.1410   25.0180 C   0  0  0  0  0  0  0  0  0  0  0  0
   20.9020   10.6270   21.0050 C   0  0  0  0  0  0  0  0  0  0  0  0
   20.2720    9.4140   20.7470 C   0  0  0  0  0  0  0  0  0  0  0  0
   18.9690    9.3760   20.2600 C   0  0  0  0  0  0  0  0  0  0  0  0
   18.2800   10.5440   20.0210 C   0  0  0  0  0  0  0  0  0  0  0  0
   18.8920   11.7530   20.2590 C   0  0  0  0  0  0  0  0  0  0  0  0
   20.1950   11.7970   20.7440 C   0  0  0  0  0  0  0  0  0  0  0  0
   23.4880   10.6920   20.5300 C   0  0  0  0  0  0  0  0  0  0  0  0
   23.2110   10.7890   19.1730 C   0  0  0  0  0  0  0  0  0  0  0  0
   24.2350   10.8650   18.2430 C   0  0  0  0  0  0  0  0  0  0  0  0
   25.5500   10.8410   18.6560 C   0  0  0  0  0  0  0  0  0  0  0  0
   25.8710   10.7460   20.0070 C   0  0  0  0  0  0  0  0  0  0  0  0
   24.8260   10.6610   20.9430 C   0  0  0  0  0  0  0  0  0  0  0  0
    0.0000    0.0000    0.0000 H   0  0  0  0  0  0  0  0  0  0  0  0
    0.0000    0.0000    0.0000 H   0  0  0  0  0  0  0  0  0  0  0  0
    0.0000    0.0000    0.0000 H   0  0  0  0  0  0  0  0  0  0  0  0
    0.0000    0.0000    0.0000 H   0  0  0  0  0  0  0  0  0  0  0  0
    0.0000    0.0000    0.0000 H   0  0  0  0  0  0  0  0  0  0  0  0
    0.0000    0.0000    0.0000 H   0  0  0  0  0  0  0  0  0  0  0  0
    0.0000    0.0000    0.0000 H   0  0  0  0  0  0  0  0  0  0  0  0
    0.0000    0.0000    0.0000 H   0  0  0  0  0  0  0  0  0  0  0  0
    0.0000    0.0000    0.0000 H   0  0  0  0  0  0  0  0  0  0  0  0
    0.0000    0.0000    0.0000 H   0  0  0  0  0  0  0  0  0  0  0  0
    0.0000    0.0000    0.0000 H   0  0  0  0  0  0  0  0  0  0  0  0
    0.0000    0.0000    0.0000 H   0  0  0  0  0  0  0  0  0  0  0  0
    0.0000    0.0000    0.0000 H   0  0  0  0  0  0  0  0  0  0  0  0
    0.0000    0.0000    0.0000 H   0  0  0  0  0  0  0  0  0  0  0  0
   12.4301    5.2741    9.0761 C   0  0  0  0  0  0  0  0  0  0  0  0
   11.6790    6.0444    8.2281 C   0  0  0  0  0  0  0  0  0  0  0  0
   10.7312    5.2338    7.6486 C   0  0  0  0  0  0  0  0  0  0  0  0
    9.7106    5.4390    6.7277 C   0  0  0  0  0  0  0  0  0  0  0  0
    8.8896    4.4123    6.3149 C   0  0  0  0  0  0  0  0  0  0  0  0
    9.0881    3.1506    6.8302 C   0  0  0  0  0  0  0  0  0  0  0  0
   10.0952    2.9329    7.7430 C   0  0  0  0  0  0  0  0  0  0  0  0
   10.9322    3.9659    8.1676 C   0  0  0  0  0  0  0  0  0  0  0  0
   11.9678    4.0234    9.0288 N   0  0  0  0  0  0  0  0  0  0  0  0
   11.8115    7.0928    8.0518 H   0  0  0  0  0  0  0  0  0  0  0  0
    9.5655    6.4253    6.3334 H   0  0  0  0  0  0  0  0  0  0  0  0
    8.0877    4.5351    5.6019 H   0  0  0  0  0  0  0  0  0  0  0  0
    8.4403    2.3203    6.5100 H   0  0  0  0  0  0  0  0  0  0  0  0
   10.2631    1.9620    8.1524 H   0  0  0  0  0  0  0  0  0  0  0  0
   12.3509    3.2230    9.5735 H   0  0  0  0  0  0  0  0  0  0  0  0
  1  3  2  0
  1  4  1  0
  1  5  1  0
  2  4  1  0
  2  6  1  0
  4  9  1  0
  4 15  1  0
  5  6  1  0
  5  8  1  0
  6  7  2  3
  9 10  2  0
  9 14  1  0
 10 11  1  0
 11 12  2  0
 12 13  1  0
 13 14  2  0
 15 16  2  0
 15 20  1  0
 16 17  1  0
 17 18  2  0
 18 19  1  0
 19 20  2  0
  2 21  1  0
  7 22  1  0
  8 23  1  0
  8 24  1  0
  8 25  1  0
 10 26  1  0
 11 27  1  0
 12 28  1  0
 13 29  1  0
 14 30  1  0
 16 31  1  0
 17 32  1  0
 19 33  1  0
 20 34  1  0
 35 36  2  0
 36 37  1  0
 37 38  2  0
 38 39  1  0
 39 40  2  0
 40 41  1  0
 41 42  2  0
 42 43  1  0
 43 35  1  0
 42 37  1  0
 36 44  1  0
 38 45  1  0
 39 46  1  0
 40 47  1  0
 41 48  1  0
 43 49  1  0
 18 35  1  0
M  END
>  <attachment_point>  (288) 
32

>  <score>  (288) 
<NA>

$$$$
4djw
     RDKit          3D

 48 50  0  0  0  0  0  0  0  0999 V2000
   22.4950   11.8750   22.5810 C   0  0  0  0  0  0  0  0  0  0  0  0
   22.5380    9.4930   22.4640 N   0  0  0  0  0  0  0  0  0  0  0  0
   22.3600   13.0630   22.3480 O   0  0  0  0  0  0  0  0  0  0  0  0
   22.3390   10.6680   21.5610 C   0  0  0  0  0  0  0  0  0  0  0  0
   22.7860   11.3350   23.8120 N   0  0  0  0  0  0  0  0  0  0  0  0
   22.7800    9.9140   23.7010 C   0  0  0  0  0  0  0  0  0  0  0  0
   22.9970    9.1110   24.7490 N   0  0  0  0  0  0  0  0  0  0  0  0
   23.0220   12.1410   25.0180 C   0  0  0  0  0  0  0  0  0  0  0  0
   20.9020   10.6270   21.0050 C   0  0  0  0  0  0  0  0  0  0  0  0
   20.2720    9.4140   20.7470 C   0  0  0  0  0  0  0  0  0  0  0  0
   18.9690    9.3760   20.2600 C   0  0  0  0  0  0  0  0  0  0  0  0
   18.2800   10.5440   20.0210 C   0  0  0  0  0  0  0  0  0  0  0  0
   18.8920   11.7530   20.2590 C   0  0  0  0  0  0  0  0  0  0  0  0
   20.1950   11.7970   20.7440 C   0  0  0  0  0  0  0  0  0  0  0  0
   23.4880   10.6920   20.5300 C   0  0  0  0  0  0  0  0  0  0  0  0
   23.2110   10.7890   19.1730 C   0  0  0  0  0  0  0  0  0  0  0  0
   24.2350   10.8650   18.2430 C   0  0  0  0  0  0  0  0  0  0  0  0
   25.5500   10.8410   18.6560 C   0  0  0  0  0  0  0  0  0  0  0  0
   25.8710   10.7460   20.0070 C   0  0  0  0  0  0  0  0  0  0  0  0
   24.8260   10.6610   20.9430 C   0  0  0  0  0  0  0  0  0  0  0  0
    0.0000    0.0000    0.0000 H   0  0  0  0  0  0  0  0  0  0  0  0
    0.0000    0.0000    0.0000 H   0  0  0  0  0  0  0  0  0  0  0  0
    0.0000    0.0000    0.0000 H   0  0  0  0  0  0  0  0  0  0  0  0
    0.0000    0.0000    0.0000 H   0  0  0  0  0  0  0  0  0  0  0  0
    0.0000    0.0000    0.0000 H   0  0  0  0  0  0  0  0  0  0  0  0
    0.0000    0.0000    0.0000 H   0  0  0  0  0  0  0  0  0  0  0  0
    0.0000    0.0000    0.0000 H   0  0  0  0  0  0  0  0  0  0  0  0
    0.0000    0.0000    0.0000 H   0  0  0  0  0  0  0  0  0  0  0  0
    0.0000    0.0000    0.0000 H   0  0  0  0  0  0  0  0  0  0  0  0
    0.0000    0.0000    0.0000 H   0  0  0  0  0  0  0  0  0  0  0  0
    0.0000    0.0000    0.0000 H   0  0  0  0  0  0  0  0  0  0  0  0
    0.0000    0.0000    0.0000 H   0  0  0  0  0  0  0  0  0  0  0  0
    0.0000    0.0000    0.0000 H   0  0  0  0  0  0  0  0  0  0  0  0
    0.0000    0.0000    0.0000 H   0  0  0  0  0  0  0  0  0  0  0  0
   12.4431    5.2797    9.0857 C   0  0  0  0  0  0  0  0  0  0  0  0
   11.7937    4.1674    9.8369 C   0  0  0  0  0  0  0  0  0  0  0  0
   10.7961    3.5671    9.3675 O   0  0  0  0  0  0  0  0  0  0  0  0
   12.2778    3.7489   11.1047 N   0  0  0  0  0  0  0  0  0  0  0  0
   13.4323    4.4426   11.6496 C   0  0  0  0  0  0  0  0  0  0  0  0
   11.6247    2.6651   11.8092 C   0  0  0  0  0  0  0  0  0  0  0  0
   11.7559    6.1559    8.9980 H   0  0  0  0  0  0  0  0  0  0  0  0
   12.7743    4.9595    8.0814 H   0  0  0  0  0  0  0  0  0  0  0  0
   14.3300    3.8530   11.4084 H   0  0  0  0  0  0  0  0  0  0  0  0
   13.2903    4.6083   12.7420 H   0  0  0  0  0  0  0  0  0  0  0  0
   13.5466    5.4343   11.1654 H   0  0  0  0  0  0  0  0  0  0  0  0
   11.9766    2.5867   12.8473 H   0  0  0  0  0  0  0  0  0  0  0  0
   11.7578    1.7174   11.2430 H   0  0  0  0  0  0  0  0  0  0  0  0
   10.5450    2.9134   11.8551 H   0  0  0  0  0  0  0  0  0  0  0  0
  1  3  2  0
  1  4  1  0
  1  5  1  0
  2  4  1  0
  2  6  1  0
  4  9  1  0
  4 15  1  0
  5  6  1  0
  5  8  1  0
  6  7  2  3
  9 10  2  0
  9 14  1  0
 10 11  1  0
 11 12  2  0
 12 13  1  0
 13 14  2  0
 15 16  2  0
 15 20  1  0
 16 17  1  0
 17 18  2  0
 18 19  1  0
 19 20  2  0
  2 21  1  0
  7 22  1  0
  8 23  1  0
  8 24  1  0
  8 25  1  0
 10 26  1  0
 11 27  1  0
 12 28  1  0
 13 29  1  0
 14 30  1  0
 16 31  1  0
 17 32  1  0
 19 33  1  0
 20 34  1  0
 35 36  1  0
 36 37  2  0
 36 38  1  0
 38 39  1  0
 38 40  1  0
 35 41  1  0
 35 42  1  0
 39 43  1  0
 39 44  1  0
 39 45  1  0
 40 46  1  0
 40 47  1  0
 40 48  1  0
 18 35  1  0
M  END
>  <attachment_point>  (289) 
32

>  <score>  (289) 
<NA>

$$$$
4djw
     RDKit          3D

 59 63  0  0  0  0  0  0  0  0999 V2000
   22.4950   11.8750   22.5810 C   0  0  0  0  0  0  0  0  0  0  0  0
   22.5380    9.4930   22.4640 N   0  0  0  0  0  0  0  0  0  0  0  0
   22.3600   13.0630   22.3480 O   0  0  0  0  0  0  0  0  0  0  0  0
   22.3390   10.6680   21.5610 C   0  0  0  0  0  0  0  0  0  0  0  0
   22.7860   11.3350   23.8120 N   0  0  0  0  0  0  0  0  0  0  0  0
   22.7800    9.9140   23.7010 C   0  0  0  0  0  0  0  0  0  0  0  0
   22.9970    9.1110   24.7490 N   0  0  0  0  0  0  0  0  0  0  0  0
   23.0220   12.1410   25.0180 C   0  0  0  0  0  0  0  0  0  0  0  0
   20.9020   10.6270   21.0050 C   0  0  0  0  0  0  0  0  0  0  0  0
   20.2720    9.4140   20.7470 C   0  0  0  0  0  0  0  0  0  0  0  0
   18.9690    9.3760   20.2600 C   0  0  0  0  0  0  0  0  0  0  0  0
   18.2800   10.5440   20.0210 C   0  0  0  0  0  0  0  0  0  0  0  0
   18.8920   11.7530   20.2590 C   0  0  0  0  0  0  0  0  0  0  0  0
   20.1950   11.7970   20.7440 C   0  0  0  0  0  0  0  0  0  0  0  0
   23.4880   10.6920   20.5300 C   0  0  0  0  0  0  0  0  0  0  0  0
   23.2110   10.7890   19.1730 C   0  0  0  0  0  0  0  0  0  0  0  0
   24.2350   10.8650   18.2430 C   0  0  0  0  0  0  0  0  0  0  0  0
   25.5500   10.8410   18.6560 C   0  0  0  0  0  0  0  0  0  0  0  0
   25.8710   10.7460   20.0070 C   0  0  0  0  0  0  0  0  0  0  0  0
   24.8260   10.6610   20.9430 C   0  0  0  0  0  0  0  0  0  0  0  0
    0.0000    0.0000    0.0000 H   0  0  0  0  0  0  0  0  0  0  0  0
    0.0000    0.0000    0.0000 H   0  0  0  0  0  0  0  0  0  0  0  0
    0.0000    0.0000    0.0000 H   0  0  0  0  0  0  0  0  0  0  0  0
    0.0000    0.0000    0.0000 H   0  0  0  0  0  0  0  0  0  0  0  0
    0.0000    0.0000    0.0000 H   0  0  0  0  0  0  0  0  0  0  0  0
    0.0000    0.0000    0.0000 H   0  0  0  0  0  0  0  0  0  0  0  0
    0.0000    0.0000    0.0000 H   0  0  0  0  0  0  0  0  0  0  0  0
    0.0000    0.0000    0.0000 H   0  0  0  0  0  0  0  0  0  0  0  0
    0.0000    0.0000    0.0000 H   0  0  0  0  0  0  0  0  0  0  0  0
    0.0000    0.0000    0.0000 H   0  0  0  0  0  0  0  0  0  0  0  0
    0.0000    0.0000    0.0000 H   0  0  0  0  0  0  0  0  0  0  0  0
    0.0000    0.0000    0.0000 H   0  0  0  0  0  0  0  0  0  0  0  0
    0.0000    0.0000    0.0000 H   0  0  0  0  0  0  0  0  0  0  0  0
    0.0000    0.0000    0.0000 H   0  0  0  0  0  0  0  0  0  0  0  0
   12.5026    5.3049    9.1291 N   0  0  0  0  0  0  0  0  0  0  0  0
   12.5957    3.9956    8.6339 C   0  0  0  0  0  0  0  0  0  0  0  0
   11.4765    3.4634    7.8429 C   0  0  0  0  0  0  0  0  0  0  0  0
   10.5936    4.4251    7.2798 N   0  0  0  0  0  0  0  0  0  0  0  0
    9.5456    3.9723    6.4239 C   0  0  0  0  0  0  0  0  0  0  0  0
    9.3757    2.6201    6.1354 C   0  0  0  0  0  0  0  0  0  0  0  0
    8.3611    2.2076    5.3100 C   0  0  0  0  0  0  0  0  0  0  0  0
    7.4700    3.0962    4.7313 C   0  0  0  0  0  0  0  0  0  0  0  0
    7.6240    4.4243    5.0048 C   0  0  0  0  0  0  0  0  0  0  0  0
    8.6428    4.8435    5.8344 C   0  0  0  0  0  0  0  0  0  0  0  0
   10.6952    5.8326    7.5227 C   0  0  0  0  0  0  0  0  0  0  0  0
   11.7428    6.2663    8.4463 C   0  0  0  0  0  0  0  0  0  0  0  0
   12.7459    3.3046    9.5160 H   0  0  0  0  0  0  0  0  0  0  0  0
   13.5668    3.9041    8.0639 H   0  0  0  0  0  0  0  0  0  0  0  0
   11.8789    2.8366    6.9954 H   0  0  0  0  0  0  0  0  0  0  0  0
   10.8451    2.7379    8.4346 H   0  0  0  0  0  0  0  0  0  0  0  0
   10.0852    1.9377    6.5990 H   0  0  0  0  0  0  0  0  0  0  0  0
    8.2565    1.1537    5.1064 H   0  0  0  0  0  0  0  0  0  0  0  0
    6.6697    2.7677    4.0799 H   0  0  0  0  0  0  0  0  0  0  0  0
    6.9424    5.1333    4.5658 H   0  0  0  0  0  0  0  0  0  0  0  0
    8.7609    5.9048    6.0491 H   0  0  0  0  0  0  0  0  0  0  0  0
    9.6689    6.1680    7.8597 H   0  0  0  0  0  0  0  0  0  0  0  0
   10.8035    6.3198    6.5076 H   0  0  0  0  0  0  0  0  0  0  0  0
   11.2859    6.9570    9.2180 H   0  0  0  0  0  0  0  0  0  0  0  0
   12.4642    6.9446    7.8979 H   0  0  0  0  0  0  0  0  0  0  0  0
  1  3  2  0
  1  4  1  0
  1  5  1  0
  2  4  1  0
  2  6  1  0
  4  9  1  0
  4 15  1  0
  5  6  1  0
  5  8  1  0
  6  7  2  3
  9 10  2  0
  9 14  1  0
 10 11  1  0
 11 12  2  0
 12 13  1  0
 13 14  2  0
 15 16  2  0
 15 20  1  0
 16 17  1  0
 17 18  2  0
 18 19  1  0
 19 20  2  0
  2 21  1  0
  7 22  1  0
  8 23  1  0
  8 24  1  0
  8 25  1  0
 10 26  1  0
 11 27  1  0
 12 28  1  0
 13 29  1  0
 14 30  1  0
 16 31  1  0
 17 32  1  0
 19 33  1  0
 20 34  1  0
 35 36  1  0
 36 37  1  0
 37 38  1  0
 38 39  1  0
 39 40  2  0
 40 41  1  0
 41 42  2  0
 42 43  1  0
 43 44  2  0
 38 45  1  0
 45 46  1  0
 46 35  1  0
 44 39  1  0
 36 47  1  0
 36 48  1  0
 37 49  1  0
 37 50  1  0
 40 51  1  0
 41 52  1  0
 42 53  1  0
 43 54  1  0
 44 55  1  0
 45 56  1  0
 45 57  1  0
 46 58  1  0
 46 59  1  0
 18 35  1  0
M  END
>  <attachment_point>  (290) 
32

>  <score>  (290) 
<NA>

$$$$
4djw
     RDKit          3D

 48 50  0  0  0  0  0  0  0  0999 V2000
   22.4950   11.8750   22.5810 C   0  0  0  0  0  0  0  0  0  0  0  0
   22.5380    9.4930   22.4640 N   0  0  0  0  0  0  0  0  0  0  0  0
   22.3600   13.0630   22.3480 O   0  0  0  0  0  0  0  0  0  0  0  0
   22.3390   10.6680   21.5610 C   0  0  0  0  0  0  0  0  0  0  0  0
   22.7860   11.3350   23.8120 N   0  0  0  0  0  0  0  0  0  0  0  0
   22.7800    9.9140   23.7010 C   0  0  0  0  0  0  0  0  0  0  0  0
   22.9970    9.1110   24.7490 N   0  0  0  0  0  0  0  0  0  0  0  0
   23.0220   12.1410   25.0180 C   0  0  0  0  0  0  0  0  0  0  0  0
   20.9020   10.6270   21.0050 C   0  0  0  0  0  0  0  0  0  0  0  0
   20.2720    9.4140   20.7470 C   0  0  0  0  0  0  0  0  0  0  0  0
   18.9690    9.3760   20.2600 C   0  0  0  0  0  0  0  0  0  0  0  0
   18.2800   10.5440   20.0210 C   0  0  0  0  0  0  0  0  0  0  0  0
   18.8920   11.7530   20.2590 C   0  0  0  0  0  0  0  0  0  0  0  0
   20.1950   11.7970   20.7440 C   0  0  0  0  0  0  0  0  0  0  0  0
   23.4880   10.6920   20.5300 C   0  0  0  0  0  0  0  0  0  0  0  0
   23.2110   10.7890   19.1730 C   0  0  0  0  0  0  0  0  0  0  0  0
   24.2350   10.8650   18.2430 C   0  0  0  0  0  0  0  0  0  0  0  0
   25.5500   10.8410   18.6560 C   0  0  0  0  0  0  0  0  0  0  0  0
   25.8710   10.7460   20.0070 C   0  0  0  0  0  0  0  0  0  0  0  0
   24.8260   10.6610   20.9430 C   0  0  0  0  0  0  0  0  0  0  0  0
    0.0000    0.0000    0.0000 H   0  0  0  0  0  0  0  0  0  0  0  0
    0.0000    0.0000    0.0000 H   0  0  0  0  0  0  0  0  0  0  0  0
    0.0000    0.0000    0.0000 H   0  0  0  0  0  0  0  0  0  0  0  0
    0.0000    0.0000    0.0000 H   0  0  0  0  0  0  0  0  0  0  0  0
    0.0000    0.0000    0.0000 H   0  0  0  0  0  0  0  0  0  0  0  0
    0.0000    0.0000    0.0000 H   0  0  0  0  0  0  0  0  0  0  0  0
    0.0000    0.0000    0.0000 H   0  0  0  0  0  0  0  0  0  0  0  0
    0.0000    0.0000    0.0000 H   0  0  0  0  0  0  0  0  0  0  0  0
    0.0000    0.0000    0.0000 H   0  0  0  0  0  0  0  0  0  0  0  0
    0.0000    0.0000    0.0000 H   0  0  0  0  0  0  0  0  0  0  0  0
    0.0000    0.0000    0.0000 H   0  0  0  0  0  0  0  0  0  0  0  0
    0.0000    0.0000    0.0000 H   0  0  0  0  0  0  0  0  0  0  0  0
    0.0000    0.0000    0.0000 H   0  0  0  0  0  0  0  0  0  0  0  0
    0.0000    0.0000    0.0000 H   0  0  0  0  0  0  0  0  0  0  0  0
   12.4416    5.2791    9.0846 C   0  0  0  0  0  0  0  0  0  0  0  0
   11.3373    4.9019   10.0041 C   0  0  0  0  0  0  0  0  0  0  0  0
   12.8786    4.1305    8.2010 C   0  0  0  0  0  0  0  0  0  0  0  0
   12.0891    6.4318    8.1736 C   0  0  0  0  0  0  0  0  0  0  0  0
   11.7162    7.5661    8.9267 O   0  0  0  0  0  0  0  0  0  0  0  0
   11.7685    4.6030   11.0022 H   0  0  0  0  0  0  0  0  0  0  0  0
   10.6364    5.7180   10.1970 H   0  0  0  0  0  0  0  0  0  0  0  0
   10.8251    3.9771    9.6154 H   0  0  0  0  0  0  0  0  0  0  0  0
   12.2135    4.0970    7.3082 H   0  0  0  0  0  0  0  0  0  0  0  0
   13.8872    4.3704    7.8216 H   0  0  0  0  0  0  0  0  0  0  0  0
   12.8242    3.1532    8.7142 H   0  0  0  0  0  0  0  0  0  0  0  0
   11.2757    6.2181    7.4862 H   0  0  0  0  0  0  0  0  0  0  0  0
   12.9694    6.7532    7.5817 H   0  0  0  0  0  0  0  0  0  0  0  0
   12.5046    8.0389    9.2681 H   0  0  0  0  0  0  0  0  0  0  0  0
  1  3  2  0
  1  4  1  0
  1  5  1  0
  2  4  1  0
  2  6  1  0
  4  9  1  0
  4 15  1  0
  5  6  1  0
  5  8  1  0
  6  7  2  3
  9 10  2  0
  9 14  1  0
 10 11  1  0
 11 12  2  0
 12 13  1  0
 13 14  2  0
 15 16  2  0
 15 20  1  0
 16 17  1  0
 17 18  2  0
 18 19  1  0
 19 20  2  0
  2 21  1  0
  7 22  1  0
  8 23  1  0
  8 24  1  0
  8 25  1  0
 10 26  1  0
 11 27  1  0
 12 28  1  0
 13 29  1  0
 14 30  1  0
 16 31  1  0
 17 32  1  0
 19 33  1  0
 20 34  1  0
 35 36  1  0
 35 37  1  0
 35 38  1  0
 38 39  1  0
 36 40  1  0
 36 41  1  0
 36 42  1  0
 37 43  1  0
 37 44  1  0
 37 45  1  0
 38 46  1  0
 38 47  1  0
 39 48  1  0
 18 35  1  0
M  END
>  <attachment_point>  (291) 
32

>  <score>  (291) 
<NA>

$$$$
4djw
     RDKit          3D

 45 48  0  0  0  0  0  0  0  0999 V2000
   22.4950   11.8750   22.5810 C   0  0  0  0  0  0  0  0  0  0  0  0
   22.5380    9.4930   22.4640 N   0  0  0  0  0  0  0  0  0  0  0  0
   22.3600   13.0630   22.3480 O   0  0  0  0  0  0  0  0  0  0  0  0
   22.3390   10.6680   21.5610 C   0  0  0  0  0  0  0  0  0  0  0  0
   22.7860   11.3350   23.8120 N   0  0  0  0  0  0  0  0  0  0  0  0
   22.7800    9.9140   23.7010 C   0  0  0  0  0  0  0  0  0  0  0  0
   22.9970    9.1110   24.7490 N   0  0  0  0  0  0  0  0  0  0  0  0
   23.0220   12.1410   25.0180 C   0  0  0  0  0  0  0  0  0  0  0  0
   20.9020   10.6270   21.0050 C   0  0  0  0  0  0  0  0  0  0  0  0
   20.2720    9.4140   20.7470 C   0  0  0  0  0  0  0  0  0  0  0  0
   18.9690    9.3760   20.2600 C   0  0  0  0  0  0  0  0  0  0  0  0
   18.2800   10.5440   20.0210 C   0  0  0  0  0  0  0  0  0  0  0  0
   18.8920   11.7530   20.2590 C   0  0  0  0  0  0  0  0  0  0  0  0
   20.1950   11.7970   20.7440 C   0  0  0  0  0  0  0  0  0  0  0  0
   23.4880   10.6920   20.5300 C   0  0  0  0  0  0  0  0  0  0  0  0
   23.2110   10.7890   19.1730 C   0  0  0  0  0  0  0  0  0  0  0  0
   24.2350   10.8650   18.2430 C   0  0  0  0  0  0  0  0  0  0  0  0
   25.5500   10.8410   18.6560 C   0  0  0  0  0  0  0  0  0  0  0  0
   25.8710   10.7460   20.0070 C   0  0  0  0  0  0  0  0  0  0  0  0
   24.8260   10.6610   20.9430 C   0  0  0  0  0  0  0  0  0  0  0  0
    0.0000    0.0000    0.0000 H   0  0  0  0  0  0  0  0  0  0  0  0
    0.0000    0.0000    0.0000 H   0  0  0  0  0  0  0  0  0  0  0  0
    0.0000    0.0000    0.0000 H   0  0  0  0  0  0  0  0  0  0  0  0
    0.0000    0.0000    0.0000 H   0  0  0  0  0  0  0  0  0  0  0  0
    0.0000    0.0000    0.0000 H   0  0  0  0  0  0  0  0  0  0  0  0
    0.0000    0.0000    0.0000 H   0  0  0  0  0  0  0  0  0  0  0  0
    0.0000    0.0000    0.0000 H   0  0  0  0  0  0  0  0  0  0  0  0
    0.0000    0.0000    0.0000 H   0  0  0  0  0  0  0  0  0  0  0  0
    0.0000    0.0000    0.0000 H   0  0  0  0  0  0  0  0  0  0  0  0
    0.0000    0.0000    0.0000 H   0  0  0  0  0  0  0  0  0  0  0  0
    0.0000    0.0000    0.0000 H   0  0  0  0  0  0  0  0  0  0  0  0
    0.0000    0.0000    0.0000 H   0  0  0  0  0  0  0  0  0  0  0  0
    0.0000    0.0000    0.0000 H   0  0  0  0  0  0  0  0  0  0  0  0
    0.0000    0.0000    0.0000 H   0  0  0  0  0  0  0  0  0  0  0  0
   12.4450    5.2805    9.0871 C   0  0  0  0  0  0  0  0  0  0  0  0
   11.7543    6.1568    8.2624 C   0  0  0  0  0  0  0  0  0  0  0  0
   10.7015    5.6975    7.4973 C   0  0  0  0  0  0  0  0  0  0  0  0
   10.3544    4.3634    7.5691 C   0  0  0  0  0  0  0  0  0  0  0  0
    9.0394    3.7099    6.6353 Cl  0  0  0  0  0  0  0  0  0  0  0  0
   11.0528    3.5040    8.3956 C   0  0  0  0  0  0  0  0  0  0  0  0
   12.1048    3.9432    9.1657 C   0  0  0  0  0  0  0  0  0  0  0  0
   12.9900    2.8458   10.2155 Cl  0  0  0  0  0  0  0  0  0  0  0  0
   12.0552    7.1834    8.2358 H   0  0  0  0  0  0  0  0  0  0  0  0
   10.1632    6.3577    6.8609 H   0  0  0  0  0  0  0  0  0  0  0  0
   10.8115    2.4419    8.4824 H   0  0  0  0  0  0  0  0  0  0  0  0
  1  3  2  0
  1  4  1  0
  1  5  1  0
  2  4  1  0
  2  6  1  0
  4  9  1  0
  4 15  1  0
  5  6  1  0
  5  8  1  0
  6  7  2  3
  9 10  2  0
  9 14  1  0
 10 11  1  0
 11 12  2  0
 12 13  1  0
 13 14  2  0
 15 16  2  0
 15 20  1  0
 16 17  1  0
 17 18  2  0
 18 19  1  0
 19 20  2  0
  2 21  1  0
  7 22  1  0
  8 23  1  0
  8 24  1  0
  8 25  1  0
 10 26  1  0
 11 27  1  0
 12 28  1  0
 13 29  1  0
 14 30  1  0
 16 31  1  0
 17 32  1  0
 19 33  1  0
 20 34  1  0
 35 36  2  0
 36 37  1  0
 37 38  2  0
 38 39  1  0
 38 40  1  0
 40 41  2  0
 41 42  1  0
 41 35  1  0
 36 43  1  0
 37 44  1  0
 40 45  1  0
 18 35  1  0
M  END
>  <attachment_point>  (292) 
32

>  <score>  (292) 
<NA>

$$$$
4djw
     RDKit          3D

 46 48  0  0  0  0  0  0  0  0999 V2000
   22.4950   11.8750   22.5810 C   0  0  0  0  0  0  0  0  0  0  0  0
   22.5380    9.4930   22.4640 N   0  0  0  0  0  0  0  0  0  0  0  0
   22.3600   13.0630   22.3480 O   0  0  0  0  0  0  0  0  0  0  0  0
   22.3390   10.6680   21.5610 C   0  0  0  0  0  0  0  0  0  0  0  0
   22.7860   11.3350   23.8120 N   0  0  0  0  0  0  0  0  0  0  0  0
   22.7800    9.9140   23.7010 C   0  0  0  0  0  0  0  0  0  0  0  0
   22.9970    9.1110   24.7490 N   0  0  0  0  0  0  0  0  0  0  0  0
   23.0220   12.1410   25.0180 C   0  0  0  0  0  0  0  0  0  0  0  0
   20.9020   10.6270   21.0050 C   0  0  0  0  0  0  0  0  0  0  0  0
   20.2720    9.4140   20.7470 C   0  0  0  0  0  0  0  0  0  0  0  0
   18.9690    9.3760   20.2600 C   0  0  0  0  0  0  0  0  0  0  0  0
   18.2800   10.5440   20.0210 C   0  0  0  0  0  0  0  0  0  0  0  0
   18.8920   11.7530   20.2590 C   0  0  0  0  0  0  0  0  0  0  0  0
   20.1950   11.7970   20.7440 C   0  0  0  0  0  0  0  0  0  0  0  0
   23.4880   10.6920   20.5300 C   0  0  0  0  0  0  0  0  0  0  0  0
   23.2110   10.7890   19.1730 C   0  0  0  0  0  0  0  0  0  0  0  0
   24.2350   10.8650   18.2430 C   0  0  0  0  0  0  0  0  0  0  0  0
   25.5500   10.8410   18.6560 C   0  0  0  0  0  0  0  0  0  0  0  0
   25.8710   10.7460   20.0070 C   0  0  0  0  0  0  0  0  0  0  0  0
   24.8260   10.6610   20.9430 C   0  0  0  0  0  0  0  0  0  0  0  0
    0.0000    0.0000    0.0000 H   0  0  0  0  0  0  0  0  0  0  0  0
    0.0000    0.0000    0.0000 H   0  0  0  0  0  0  0  0  0  0  0  0
    0.0000    0.0000    0.0000 H   0  0  0  0  0  0  0  0  0  0  0  0
    0.0000    0.0000    0.0000 H   0  0  0  0  0  0  0  0  0  0  0  0
    0.0000    0.0000    0.0000 H   0  0  0  0  0  0  0  0  0  0  0  0
    0.0000    0.0000    0.0000 H   0  0  0  0  0  0  0  0  0  0  0  0
    0.0000    0.0000    0.0000 H   0  0  0  0  0  0  0  0  0  0  0  0
    0.0000    0.0000    0.0000 H   0  0  0  0  0  0  0  0  0  0  0  0
    0.0000    0.0000    0.0000 H   0  0  0  0  0  0  0  0  0  0  0  0
    0.0000    0.0000    0.0000 H   0  0  0  0  0  0  0  0  0  0  0  0
    0.0000    0.0000    0.0000 H   0  0  0  0  0  0  0  0  0  0  0  0
    0.0000    0.0000    0.0000 H   0  0  0  0  0  0  0  0  0  0  0  0
    0.0000    0.0000    0.0000 H   0  0  0  0  0  0  0  0  0  0  0  0
    0.0000    0.0000    0.0000 H   0  0  0  0  0  0  0  0  0  0  0  0
   12.4506    5.2829    9.0911 C   0  0  0  0  0  0  0  0  0  0  0  0
   12.3164    3.7761    9.1012 C   0  0  0  0  0  0  0  0  0  0  0  0
   13.4576    3.0886    8.5923 N   0  0  0  0  0  0  0  0  0  0  0  0
   14.6482    3.1473    9.3664 C   0  0  0  0  0  0  0  0  0  0  0  0
   12.5317    5.6780    8.0387 H   0  0  0  0  0  0  0  0  0  0  0  0
   11.5203    5.7043    9.5165 H   0  0  0  0  0  0  0  0  0  0  0  0
   11.4122    3.4977    8.5111 H   0  0  0  0  0  0  0  0  0  0  0  0
   12.1116    3.5001   10.1636 H   0  0  0  0  0  0  0  0  0  0  0  0
   13.2039    2.0878    8.4376 H   0  0  0  0  0  0  0  0  0  0  0  0
   15.4979    3.3190    8.6309 H   0  0  0  0  0  0  0  0  0  0  0  0
   14.9083    2.1518    9.8295 H   0  0  0  0  0  0  0  0  0  0  0  0
   14.6849    3.8858   10.1654 H   0  0  0  0  0  0  0  0  0  0  0  0
  1  3  2  0
  1  4  1  0
  1  5  1  0
  2  4  1  0
  2  6  1  0
  4  9  1  0
  4 15  1  0
  5  6  1  0
  5  8  1  0
  6  7  2  3
  9 10  2  0
  9 14  1  0
 10 11  1  0
 11 12  2  0
 12 13  1  0
 13 14  2  0
 15 16  2  0
 15 20  1  0
 16 17  1  0
 17 18  2  0
 18 19  1  0
 19 20  2  0
  2 21  1  0
  7 22  1  0
  8 23  1  0
  8 24  1  0
  8 25  1  0
 10 26  1  0
 11 27  1  0
 12 28  1  0
 13 29  1  0
 14 30  1  0
 16 31  1  0
 17 32  1  0
 19 33  1  0
 20 34  1  0
 35 36  1  0
 36 37  1  0
 37 38  1  0
 35 39  1  0
 35 40  1  0
 36 41  1  0
 36 42  1  0
 37 43  1  0
 38 44  1  0
 38 45  1  0
 38 46  1  0
 18 35  1  0
M  END
>  <attachment_point>  (293) 
32

>  <score>  (293) 
<NA>

$$$$
4djw
     RDKit          3D

 50 52  0  0  0  0  0  0  0  0999 V2000
   22.4950   11.8750   22.5810 C   0  0  0  0  0  0  0  0  0  0  0  0
   22.5380    9.4930   22.4640 N   0  0  0  0  0  0  0  0  0  0  0  0
   22.3600   13.0630   22.3480 O   0  0  0  0  0  0  0  0  0  0  0  0
   22.3390   10.6680   21.5610 C   0  0  0  0  0  0  0  0  0  0  0  0
   22.7860   11.3350   23.8120 N   0  0  0  0  0  0  0  0  0  0  0  0
   22.7800    9.9140   23.7010 C   0  0  0  0  0  0  0  0  0  0  0  0
   22.9970    9.1110   24.7490 N   0  0  0  0  0  0  0  0  0  0  0  0
   23.0220   12.1410   25.0180 C   0  0  0  0  0  0  0  0  0  0  0  0
   20.9020   10.6270   21.0050 C   0  0  0  0  0  0  0  0  0  0  0  0
   20.2720    9.4140   20.7470 C   0  0  0  0  0  0  0  0  0  0  0  0
   18.9690    9.3760   20.2600 C   0  0  0  0  0  0  0  0  0  0  0  0
   18.2800   10.5440   20.0210 C   0  0  0  0  0  0  0  0  0  0  0  0
   18.8920   11.7530   20.2590 C   0  0  0  0  0  0  0  0  0  0  0  0
   20.1950   11.7970   20.7440 C   0  0  0  0  0  0  0  0  0  0  0  0
   23.4880   10.6920   20.5300 C   0  0  0  0  0  0  0  0  0  0  0  0
   23.2110   10.7890   19.1730 C   0  0  0  0  0  0  0  0  0  0  0  0
   24.2350   10.8650   18.2430 C   0  0  0  0  0  0  0  0  0  0  0  0
   25.5500   10.8410   18.6560 C   0  0  0  0  0  0  0  0  0  0  0  0
   25.8710   10.7460   20.0070 C   0  0  0  0  0  0  0  0  0  0  0  0
   24.8260   10.6610   20.9430 C   0  0  0  0  0  0  0  0  0  0  0  0
    0.0000    0.0000    0.0000 H   0  0  0  0  0  0  0  0  0  0  0  0
    0.0000    0.0000    0.0000 H   0  0  0  0  0  0  0  0  0  0  0  0
    0.0000    0.0000    0.0000 H   0  0  0  0  0  0  0  0  0  0  0  0
    0.0000    0.0000    0.0000 H   0  0  0  0  0  0  0  0  0  0  0  0
    0.0000    0.0000    0.0000 H   0  0  0  0  0  0  0  0  0  0  0  0
    0.0000    0.0000    0.0000 H   0  0  0  0  0  0  0  0  0  0  0  0
    0.0000    0.0000    0.0000 H   0  0  0  0  0  0  0  0  0  0  0  0
    0.0000    0.0000    0.0000 H   0  0  0  0  0  0  0  0  0  0  0  0
    0.0000    0.0000    0.0000 H   0  0  0  0  0  0  0  0  0  0  0  0
    0.0000    0.0000    0.0000 H   0  0  0  0  0  0  0  0  0  0  0  0
    0.0000    0.0000    0.0000 H   0  0  0  0  0  0  0  0  0  0  0  0
    0.0000    0.0000    0.0000 H   0  0  0  0  0  0  0  0  0  0  0  0
    0.0000    0.0000    0.0000 H   0  0  0  0  0  0  0  0  0  0  0  0
    0.0000    0.0000    0.0000 H   0  0  0  0  0  0  0  0  0  0  0  0
   12.4446    5.2803    9.0868 C   0  0  0  0  0  0  0  0  0  0  0  0
   11.2554    5.6305    9.2576 O   0  0  0  0  0  0  0  0  0  0  0  0
   12.7010    4.3854    8.0541 O   0  0  0  0  0  0  0  0  0  0  0  0
   11.6629    3.9093    7.2529 C   0  0  0  0  0  0  0  0  0  0  0  0
   10.9287    4.9979    6.5190 C   0  0  0  0  0  0  0  0  0  0  0  0
   10.6416    3.0903    8.0082 C   0  0  0  0  0  0  0  0  0  0  0  0
   12.2992    2.9864    6.2060 C   0  0  0  0  0  0  0  0  0  0  0  0
   10.1032    5.3873    7.1659 H   0  0  0  0  0  0  0  0  0  0  0  0
   10.4096    4.5036    5.6533 H   0  0  0  0  0  0  0  0  0  0  0  0
   11.5958    5.8063    6.1531 H   0  0  0  0  0  0  0  0  0  0  0  0
    9.7042    3.6839    8.1789 H   0  0  0  0  0  0  0  0  0  0  0  0
   10.3353    2.2031    7.3846 H   0  0  0  0  0  0  0  0  0  0  0  0
   11.0612    2.7406    8.9772 H   0  0  0  0  0  0  0  0  0  0  0  0
   11.8810    3.1437    5.2084 H   0  0  0  0  0  0  0  0  0  0  0  0
   12.1636    1.9222    6.4682 H   0  0  0  0  0  0  0  0  0  0  0  0
   13.3959    3.1696    6.1280 H   0  0  0  0  0  0  0  0  0  0  0  0
  1  3  2  0
  1  4  1  0
  1  5  1  0
  2  4  1  0
  2  6  1  0
  4  9  1  0
  4 15  1  0
  5  6  1  0
  5  8  1  0
  6  7  2  3
  9 10  2  0
  9 14  1  0
 10 11  1  0
 11 12  2  0
 12 13  1  0
 13 14  2  0
 15 16  2  0
 15 20  1  0
 16 17  1  0
 17 18  2  0
 18 19  1  0
 19 20  2  0
  2 21  1  0
  7 22  1  0
  8 23  1  0
  8 24  1  0
  8 25  1  0
 10 26  1  0
 11 27  1  0
 12 28  1  0
 13 29  1  0
 14 30  1  0
 16 31  1  0
 17 32  1  0
 19 33  1  0
 20 34  1  0
 35 36  2  0
 35 37  1  0
 37 38  1  0
 38 39  1  0
 38 40  1  0
 38 41  1  0
 39 42  1  0
 39 43  1  0
 39 44  1  0
 40 45  1  0
 40 46  1  0
 40 47  1  0
 41 48  1  0
 41 49  1  0
 41 50  1  0
 18 35  1  0
M  END
>  <attachment_point>  (294) 
32

>  <score>  (294) 
<NA>

$$$$
4djw
     RDKit          3D

 47 50  0  0  0  0  0  0  0  0999 V2000
   22.4950   11.8750   22.5810 C   0  0  0  0  0  0  0  0  0  0  0  0
   22.5380    9.4930   22.4640 N   0  0  0  0  0  0  0  0  0  0  0  0
   22.3600   13.0630   22.3480 O   0  0  0  0  0  0  0  0  0  0  0  0
   22.3390   10.6680   21.5610 C   0  0  0  0  0  0  0  0  0  0  0  0
   22.7860   11.3350   23.8120 N   0  0  0  0  0  0  0  0  0  0  0  0
   22.7800    9.9140   23.7010 C   0  0  0  0  0  0  0  0  0  0  0  0
   22.9970    9.1110   24.7490 N   0  0  0  0  0  0  0  0  0  0  0  0
   23.0220   12.1410   25.0180 C   0  0  0  0  0  0  0  0  0  0  0  0
   20.9020   10.6270   21.0050 C   0  0  0  0  0  0  0  0  0  0  0  0
   20.2720    9.4140   20.7470 C   0  0  0  0  0  0  0  0  0  0  0  0
   18.9690    9.3760   20.2600 C   0  0  0  0  0  0  0  0  0  0  0  0
   18.2800   10.5440   20.0210 C   0  0  0  0  0  0  0  0  0  0  0  0
   18.8920   11.7530   20.2590 C   0  0  0  0  0  0  0  0  0  0  0  0
   20.1950   11.7970   20.7440 C   0  0  0  0  0  0  0  0  0  0  0  0
   23.4880   10.6920   20.5300 C   0  0  0  0  0  0  0  0  0  0  0  0
   23.2110   10.7890   19.1730 C   0  0  0  0  0  0  0  0  0  0  0  0
   24.2350   10.8650   18.2430 C   0  0  0  0  0  0  0  0  0  0  0  0
   25.5500   10.8410   18.6560 C   0  0  0  0  0  0  0  0  0  0  0  0
   25.8710   10.7460   20.0070 C   0  0  0  0  0  0  0  0  0  0  0  0
   24.8260   10.6610   20.9430 C   0  0  0  0  0  0  0  0  0  0  0  0
    0.0000    0.0000    0.0000 H   0  0  0  0  0  0  0  0  0  0  0  0
    0.0000    0.0000    0.0000 H   0  0  0  0  0  0  0  0  0  0  0  0
    0.0000    0.0000    0.0000 H   0  0  0  0  0  0  0  0  0  0  0  0
    0.0000    0.0000    0.0000 H   0  0  0  0  0  0  0  0  0  0  0  0
    0.0000    0.0000    0.0000 H   0  0  0  0  0  0  0  0  0  0  0  0
    0.0000    0.0000    0.0000 H   0  0  0  0  0  0  0  0  0  0  0  0
    0.0000    0.0000    0.0000 H   0  0  0  0  0  0  0  0  0  0  0  0
    0.0000    0.0000    0.0000 H   0  0  0  0  0  0  0  0  0  0  0  0
    0.0000    0.0000    0.0000 H   0  0  0  0  0  0  0  0  0  0  0  0
    0.0000    0.0000    0.0000 H   0  0  0  0  0  0  0  0  0  0  0  0
    0.0000    0.0000    0.0000 H   0  0  0  0  0  0  0  0  0  0  0  0
    0.0000    0.0000    0.0000 H   0  0  0  0  0  0  0  0  0  0  0  0
    0.0000    0.0000    0.0000 H   0  0  0  0  0  0  0  0  0  0  0  0
    0.0000    0.0000    0.0000 H   0  0  0  0  0  0  0  0  0  0  0  0
   12.4821    5.2962    9.1141 C   0  0  1  0  0  0  0  0  0  0  0  0
   11.2650    6.2320    9.1367 C   0  0  0  0  0  0  0  0  0  0  0  0
   10.7206    5.9511    7.7380 C   0  0  0  0  0  0  0  0  0  0  0  0
   11.9412    6.1236    6.9523 N   0  0  0  0  0  0  0  0  0  0  0  0
   12.8329    5.1963    7.6422 C   0  0  0  0  0  0  0  0  0  0  0  0
   12.0844    4.3010    9.4447 H   0  0  0  0  0  0  0  0  0  0  0  0
   11.5776    7.2905    9.1923 H   0  0  0  0  0  0  0  0  0  0  0  0
   10.5393    5.9408    9.9070 H   0  0  0  0  0  0  0  0  0  0  0  0
    9.9169    6.6117    7.4468 H   0  0  0  0  0  0  0  0  0  0  0  0
   10.4907    4.8714    7.7135 H   0  0  0  0  0  0  0  0  0  0  0  0
   11.7761    5.7986    5.9685 H   0  0  0  0  0  0  0  0  0  0  0  0
   12.6289    4.1735    7.2386 H   0  0  0  0  0  0  0  0  0  0  0  0
   13.8902    5.4150    7.4692 H   0  0  0  0  0  0  0  0  0  0  0  0
  1  3  2  0
  1  4  1  0
  1  5  1  0
  2  4  1  0
  2  6  1  0
  4  9  1  0
  4 15  1  0
  5  6  1  0
  5  8  1  0
  6  7  2  3
  9 10  2  0
  9 14  1  0
 10 11  1  0
 11 12  2  0
 12 13  1  0
 13 14  2  0
 15 16  2  0
 15 20  1  0
 16 17  1  0
 17 18  2  0
 18 19  1  0
 19 20  2  0
  2 21  1  0
  7 22  1  0
  8 23  1  0
  8 24  1  0
  8 25  1  0
 10 26  1  0
 11 27  1  0
 12 28  1  0
 13 29  1  0
 14 30  1  0
 16 31  1  0
 17 32  1  0
 19 33  1  0
 20 34  1  0
 35 36  1  0
 36 37  1  0
 37 38  1  0
 38 39  1  0
 39 35  1  0
 35 40  1  6
 36 41  1  0
 36 42  1  0
 37 43  1  0
 37 44  1  0
 38 45  1  0
 39 46  1  0
 39 47  1  0
 18 35  1  0
M  END
>  <attachment_point>  (295) 
32

>  <score>  (295) 
<NA>

$$$$
4djw
     RDKit          3D

 44 47  0  0  0  0  0  0  0  0999 V2000
   22.4950   11.8750   22.5810 C   0  0  0  0  0  0  0  0  0  0  0  0
   22.5380    9.4930   22.4640 N   0  0  0  0  0  0  0  0  0  0  0  0
   22.3600   13.0630   22.3480 O   0  0  0  0  0  0  0  0  0  0  0  0
   22.3390   10.6680   21.5610 C   0  0  0  0  0  0  0  0  0  0  0  0
   22.7860   11.3350   23.8120 N   0  0  0  0  0  0  0  0  0  0  0  0
   22.7800    9.9140   23.7010 C   0  0  0  0  0  0  0  0  0  0  0  0
   22.9970    9.1110   24.7490 N   0  0  0  0  0  0  0  0  0  0  0  0
   23.0220   12.1410   25.0180 C   0  0  0  0  0  0  0  0  0  0  0  0
   20.9020   10.6270   21.0050 C   0  0  0  0  0  0  0  0  0  0  0  0
   20.2720    9.4140   20.7470 C   0  0  0  0  0  0  0  0  0  0  0  0
   18.9690    9.3760   20.2600 C   0  0  0  0  0  0  0  0  0  0  0  0
   18.2800   10.5440   20.0210 C   0  0  0  0  0  0  0  0  0  0  0  0
   18.8920   11.7530   20.2590 C   0  0  0  0  0  0  0  0  0  0  0  0
   20.1950   11.7970   20.7440 C   0  0  0  0  0  0  0  0  0  0  0  0
   23.4880   10.6920   20.5300 C   0  0  0  0  0  0  0  0  0  0  0  0
   23.2110   10.7890   19.1730 C   0  0  0  0  0  0  0  0  0  0  0  0
   24.2350   10.8650   18.2430 C   0  0  0  0  0  0  0  0  0  0  0  0
   25.5500   10.8410   18.6560 C   0  0  0  0  0  0  0  0  0  0  0  0
   25.8710   10.7460   20.0070 C   0  0  0  0  0  0  0  0  0  0  0  0
   24.8260   10.6610   20.9430 C   0  0  0  0  0  0  0  0  0  0  0  0
    0.0000    0.0000    0.0000 H   0  0  0  0  0  0  0  0  0  0  0  0
    0.0000    0.0000    0.0000 H   0  0  0  0  0  0  0  0  0  0  0  0
    0.0000    0.0000    0.0000 H   0  0  0  0  0  0  0  0  0  0  0  0
    0.0000    0.0000    0.0000 H   0  0  0  0  0  0  0  0  0  0  0  0
    0.0000    0.0000    0.0000 H   0  0  0  0  0  0  0  0  0  0  0  0
    0.0000    0.0000    0.0000 H   0  0  0  0  0  0  0  0  0  0  0  0
    0.0000    0.0000    0.0000 H   0  0  0  0  0  0  0  0  0  0  0  0
    0.0000    0.0000    0.0000 H   0  0  0  0  0  0  0  0  0  0  0  0
    0.0000    0.0000    0.0000 H   0  0  0  0  0  0  0  0  0  0  0  0
    0.0000    0.0000    0.0000 H   0  0  0  0  0  0  0  0  0  0  0  0
    0.0000    0.0000    0.0000 H   0  0  0  0  0  0  0  0  0  0  0  0
    0.0000    0.0000    0.0000 H   0  0  0  0  0  0  0  0  0  0  0  0
    0.0000    0.0000    0.0000 H   0  0  0  0  0  0  0  0  0  0  0  0
    0.0000    0.0000    0.0000 H   0  0  0  0  0  0  0  0  0  0  0  0
   12.4394    5.2781    9.0830 C   0  0  0  0  0  0  0  0  0  0  0  0
   11.2815    5.5611    9.4475 O   0  0  0  0  0  0  0  0  0  0  0  0
   12.7038    4.4925    7.8726 C   0  0  0  0  0  0  0  0  0  0  0  0
   13.9035    4.1013    7.3417 C   0  0  0  0  0  0  0  0  0  0  0  0
   13.8760    3.3860    6.2216 C   0  0  0  0  0  0  0  0  0  0  0  0
   12.6523    3.0910    5.6784 C   0  0  0  0  0  0  0  0  0  0  0  0
   11.5778    3.8393    6.7762 S   0  0  0  0  0  0  0  0  0  0  0  0
   14.8426    4.3931    7.8607 H   0  0  0  0  0  0  0  0  0  0  0  0
   14.7909    3.0191    5.7096 H   0  0  0  0  0  0  0  0  0  0  0  0
   12.4416    2.5127    4.7604 H   0  0  0  0  0  0  0  0  0  0  0  0
  1  3  2  0
  1  4  1  0
  1  5  1  0
  2  4  1  0
  2  6  1  0
  4  9  1  0
  4 15  1  0
  5  6  1  0
  5  8  1  0
  6  7  2  3
  9 10  2  0
  9 14  1  0
 10 11  1  0
 11 12  2  0
 12 13  1  0
 13 14  2  0
 15 16  2  0
 15 20  1  0
 16 17  1  0
 17 18  2  0
 18 19  1  0
 19 20  2  0
  2 21  1  0
  7 22  1  0
  8 23  1  0
  8 24  1  0
  8 25  1  0
 10 26  1  0
 11 27  1  0
 12 28  1  0
 13 29  1  0
 14 30  1  0
 16 31  1  0
 17 32  1  0
 19 33  1  0
 20 34  1  0
 35 36  2  0
 35 37  1  0
 37 38  2  0
 38 39  1  0
 39 40  2  0
 40 41  1  0
 41 37  1  0
 38 42  1  0
 39 43  1  0
 40 44  1  0
 18 35  1  0
M  END
>  <attachment_point>  (296) 
32

>  <score>  (296) 
<NA>

$$$$
4djw
     RDKit          3D

 55 58  0  0  0  0  0  0  0  0999 V2000
   22.4950   11.8750   22.5810 C   0  0  0  0  0  0  0  0  0  0  0  0
   22.5380    9.4930   22.4640 N   0  0  0  0  0  0  0  0  0  0  0  0
   22.3600   13.0630   22.3480 O   0  0  0  0  0  0  0  0  0  0  0  0
   22.3390   10.6680   21.5610 C   0  0  0  0  0  0  0  0  0  0  0  0
   22.7860   11.3350   23.8120 N   0  0  0  0  0  0  0  0  0  0  0  0
   22.7800    9.9140   23.7010 C   0  0  0  0  0  0  0  0  0  0  0  0
   22.9970    9.1110   24.7490 N   0  0  0  0  0  0  0  0  0  0  0  0
   23.0220   12.1410   25.0180 C   0  0  0  0  0  0  0  0  0  0  0  0
   20.9020   10.6270   21.0050 C   0  0  0  0  0  0  0  0  0  0  0  0
   20.2720    9.4140   20.7470 C   0  0  0  0  0  0  0  0  0  0  0  0
   18.9690    9.3760   20.2600 C   0  0  0  0  0  0  0  0  0  0  0  0
   18.2800   10.5440   20.0210 C   0  0  0  0  0  0  0  0  0  0  0  0
   18.8920   11.7530   20.2590 C   0  0  0  0  0  0  0  0  0  0  0  0
   20.1950   11.7970   20.7440 C   0  0  0  0  0  0  0  0  0  0  0  0
   23.4880   10.6920   20.5300 C   0  0  0  0  0  0  0  0  0  0  0  0
   23.2110   10.7890   19.1730 C   0  0  0  0  0  0  0  0  0  0  0  0
   24.2350   10.8650   18.2430 C   0  0  0  0  0  0  0  0  0  0  0  0
   25.5500   10.8410   18.6560 C   0  0  0  0  0  0  0  0  0  0  0  0
   25.8710   10.7460   20.0070 C   0  0  0  0  0  0  0  0  0  0  0  0
   24.8260   10.6610   20.9430 C   0  0  0  0  0  0  0  0  0  0  0  0
    0.0000    0.0000    0.0000 H   0  0  0  0  0  0  0  0  0  0  0  0
    0.0000    0.0000    0.0000 H   0  0  0  0  0  0  0  0  0  0  0  0
    0.0000    0.0000    0.0000 H   0  0  0  0  0  0  0  0  0  0  0  0
    0.0000    0.0000    0.0000 H   0  0  0  0  0  0  0  0  0  0  0  0
    0.0000    0.0000    0.0000 H   0  0  0  0  0  0  0  0  0  0  0  0
    0.0000    0.0000    0.0000 H   0  0  0  0  0  0  0  0  0  0  0  0
    0.0000    0.0000    0.0000 H   0  0  0  0  0  0  0  0  0  0  0  0
    0.0000    0.0000    0.0000 H   0  0  0  0  0  0  0  0  0  0  0  0
    0.0000    0.0000    0.0000 H   0  0  0  0  0  0  0  0  0  0  0  0
    0.0000    0.0000    0.0000 H   0  0  0  0  0  0  0  0  0  0  0  0
    0.0000    0.0000    0.0000 H   0  0  0  0  0  0  0  0  0  0  0  0
    0.0000    0.0000    0.0000 H   0  0  0  0  0  0  0  0  0  0  0  0
    0.0000    0.0000    0.0000 H   0  0  0  0  0  0  0  0  0  0  0  0
    0.0000    0.0000    0.0000 H   0  0  0  0  0  0  0  0  0  0  0  0
   12.4923    5.3006    9.1216 N   0  0  0  0  0  0  0  0  0  0  0  0
   12.0299    6.1792    8.1182 C   0  0  0  0  0  0  0  0  0  0  0  0
   11.1784    5.5523    7.0548 C   0  0  0  0  0  0  0  0  0  0  0  0
   12.1145    4.8824    6.0632 C   0  0  0  0  0  0  0  0  0  0  0  0
   12.3986    3.5343    6.4334 N   0  0  0  0  0  0  0  0  0  0  0  0
   13.2491    2.9564    5.3994 C   0  0  0  0  0  0  0  0  0  0  0  0
   13.0898    3.3940    7.6821 C   0  0  0  0  0  0  0  0  0  0  0  0
   12.3298    3.9067    8.8669 C   0  0  0  0  0  0  0  0  0  0  0  0
   12.9327    6.6061    7.5900 H   0  0  0  0  0  0  0  0  0  0  0  0
   11.5056    7.0814    8.5273 H   0  0  0  0  0  0  0  0  0  0  0  0
   10.4554    4.8150    7.4252 H   0  0  0  0  0  0  0  0  0  0  0  0
   10.5685    6.3487    6.5455 H   0  0  0  0  0  0  0  0  0  0  0  0
   11.5972    4.8768    5.0906 H   0  0  0  0  0  0  0  0  0  0  0  0
   13.0202    5.5192    5.9516 H   0  0  0  0  0  0  0  0  0  0  0  0
   14.1984    2.5569    5.8112 H   0  0  0  0  0  0  0  0  0  0  0  0
   13.5571    3.7312    4.6442 H   0  0  0  0  0  0  0  0  0  0  0  0
   12.7476    2.0986    4.9030 H   0  0  0  0  0  0  0  0  0  0  0  0
   14.1048    3.8101    7.6959 H   0  0  0  0  0  0  0  0  0  0  0  0
   13.2192    2.2831    7.8463 H   0  0  0  0  0  0  0  0  0  0  0  0
   11.2668    3.5712    8.8233 H   0  0  0  0  0  0  0  0  0  0  0  0
   12.7515    3.3666    9.7677 H   0  0  0  0  0  0  0  0  0  0  0  0
  1  3  2  0
  1  4  1  0
  1  5  1  0
  2  4  1  0
  2  6  1  0
  4  9  1  0
  4 15  1  0
  5  6  1  0
  5  8  1  0
  6  7  2  3
  9 10  2  0
  9 14  1  0
 10 11  1  0
 11 12  2  0
 12 13  1  0
 13 14  2  0
 15 16  2  0
 15 20  1  0
 16 17  1  0
 17 18  2  0
 18 19  1  0
 19 20  2  0
  2 21  1  0
  7 22  1  0
  8 23  1  0
  8 24  1  0
  8 25  1  0
 10 26  1  0
 11 27  1  0
 12 28  1  0
 13 29  1  0
 14 30  1  0
 16 31  1  0
 17 32  1  0
 19 33  1  0
 20 34  1  0
 35 36  1  0
 36 37  1  0
 37 38  1  0
 38 39  1  0
 39 40  1  0
 39 41  1  0
 41 42  1  0
 42 35  1  0
 36 43  1  0
 36 44  1  0
 37 45  1  0
 37 46  1  0
 38 47  1  0
 38 48  1  0
 40 49  1  0
 40 50  1  0
 40 51  1  0
 41 52  1  0
 41 53  1  0
 42 54  1  0
 42 55  1  0
 18 35  1  0
M  END
>  <attachment_point>  (297) 
32

>  <score>  (297) 
<NA>

$$$$
4djw
     RDKit          3D

 52 55  0  0  0  0  0  0  0  0999 V2000
   22.4950   11.8750   22.5810 C   0  0  0  0  0  0  0  0  0  0  0  0
   22.5380    9.4930   22.4640 N   0  0  0  0  0  0  0  0  0  0  0  0
   22.3600   13.0630   22.3480 O   0  0  0  0  0  0  0  0  0  0  0  0
   22.3390   10.6680   21.5610 C   0  0  0  0  0  0  0  0  0  0  0  0
   22.7860   11.3350   23.8120 N   0  0  0  0  0  0  0  0  0  0  0  0
   22.7800    9.9140   23.7010 C   0  0  0  0  0  0  0  0  0  0  0  0
   22.9970    9.1110   24.7490 N   0  0  0  0  0  0  0  0  0  0  0  0
   23.0220   12.1410   25.0180 C   0  0  0  0  0  0  0  0  0  0  0  0
   20.9020   10.6270   21.0050 C   0  0  0  0  0  0  0  0  0  0  0  0
   20.2720    9.4140   20.7470 C   0  0  0  0  0  0  0  0  0  0  0  0
   18.9690    9.3760   20.2600 C   0  0  0  0  0  0  0  0  0  0  0  0
   18.2800   10.5440   20.0210 C   0  0  0  0  0  0  0  0  0  0  0  0
   18.8920   11.7530   20.2590 C   0  0  0  0  0  0  0  0  0  0  0  0
   20.1950   11.7970   20.7440 C   0  0  0  0  0  0  0  0  0  0  0  0
   23.4880   10.6920   20.5300 C   0  0  0  0  0  0  0  0  0  0  0  0
   23.2110   10.7890   19.1730 C   0  0  0  0  0  0  0  0  0  0  0  0
   24.2350   10.8650   18.2430 C   0  0  0  0  0  0  0  0  0  0  0  0
   25.5500   10.8410   18.6560 C   0  0  0  0  0  0  0  0  0  0  0  0
   25.8710   10.7460   20.0070 C   0  0  0  0  0  0  0  0  0  0  0  0
   24.8260   10.6610   20.9430 C   0  0  0  0  0  0  0  0  0  0  0  0
    0.0000    0.0000    0.0000 H   0  0  0  0  0  0  0  0  0  0  0  0
    0.0000    0.0000    0.0000 H   0  0  0  0  0  0  0  0  0  0  0  0
    0.0000    0.0000    0.0000 H   0  0  0  0  0  0  0  0  0  0  0  0
    0.0000    0.0000    0.0000 H   0  0  0  0  0  0  0  0  0  0  0  0
    0.0000    0.0000    0.0000 H   0  0  0  0  0  0  0  0  0  0  0  0
    0.0000    0.0000    0.0000 H   0  0  0  0  0  0  0  0  0  0  0  0
    0.0000    0.0000    0.0000 H   0  0  0  0  0  0  0  0  0  0  0  0
    0.0000    0.0000    0.0000 H   0  0  0  0  0  0  0  0  0  0  0  0
    0.0000    0.0000    0.0000 H   0  0  0  0  0  0  0  0  0  0  0  0
    0.0000    0.0000    0.0000 H   0  0  0  0  0  0  0  0  0  0  0  0
    0.0000    0.0000    0.0000 H   0  0  0  0  0  0  0  0  0  0  0  0
    0.0000    0.0000    0.0000 H   0  0  0  0  0  0  0  0  0  0  0  0
    0.0000    0.0000    0.0000 H   0  0  0  0  0  0  0  0  0  0  0  0
    0.0000    0.0000    0.0000 H   0  0  0  0  0  0  0  0  0  0  0  0
   12.4395    5.2781    9.0830 C   0  0  0  0  0  0  0  0  0  0  0  0
   12.2970    5.6037    7.7555 C   0  0  0  0  0  0  0  0  0  0  0  0
   11.2360    5.1405    7.0223 C   0  0  0  0  0  0  0  0  0  0  0  0
   10.2426    4.3077    7.6004 C   0  0  0  0  0  0  0  0  0  0  0  0
    9.1977    3.8794    6.7895 N   0  0  0  0  0  0  0  0  0  0  0  0
    8.1189    3.0662    7.1284 C   0  0  0  0  0  0  0  0  0  0  0  0
    7.0525    2.6773    6.1480 C   0  0  0  0  0  0  0  0  0  0  0  0
    8.0021    2.6264    8.2799 O   0  0  0  0  0  0  0  0  0  0  0  0
   10.3783    3.9804    8.9188 C   0  0  0  0  0  0  0  0  0  0  0  0
   11.4805    4.4767    9.6327 C   0  0  0  0  0  0  0  0  0  0  0  0
   13.0516    6.2345    7.3221 H   0  0  0  0  0  0  0  0  0  0  0  0
   11.1520    5.4176    5.9698 H   0  0  0  0  0  0  0  0  0  0  0  0
    9.1951    4.2019    5.7622 H   0  0  0  0  0  0  0  0  0  0  0  0
    6.1060    3.2055    6.3642 H   0  0  0  0  0  0  0  0  0  0  0  0
    7.3725    2.8363    5.1198 H   0  0  0  0  0  0  0  0  0  0  0  0
    6.8762    1.5914    6.2917 H   0  0  0  0  0  0  0  0  0  0  0  0
    9.6609    3.3567    9.4071 H   0  0  0  0  0  0  0  0  0  0  0  0
   11.5377    4.1890   10.6635 H   0  0  0  0  0  0  0  0  0  0  0  0
  1  3  2  0
  1  4  1  0
  1  5  1  0
  2  4  1  0
  2  6  1  0
  4  9  1  0
  4 15  1  0
  5  6  1  0
  5  8  1  0
  6  7  2  3
  9 10  2  0
  9 14  1  0
 10 11  1  0
 11 12  2  0
 12 13  1  0
 13 14  2  0
 15 16  2  0
 15 20  1  0
 16 17  1  0
 17 18  2  0
 18 19  1  0
 19 20  2  0
  2 21  1  0
  7 22  1  0
  8 23  1  0
  8 24  1  0
  8 25  1  0
 10 26  1  0
 11 27  1  0
 12 28  1  0
 13 29  1  0
 14 30  1  0
 16 31  1  0
 17 32  1  0
 19 33  1  0
 20 34  1  0
 35 36  2  0
 36 37  1  0
 37 38  2  0
 38 39  1  0
 39 40  1  0
 40 41  1  0
 40 42  2  0
 38 43  1  0
 43 44  2  0
 44 35  1  0
 36 45  1  0
 37 46  1  0
 39 47  1  0
 41 48  1  0
 41 49  1  0
 41 50  1  0
 43 51  1  0
 44 52  1  0
 18 35  1  0
M  END
>  <attachment_point>  (298) 
32

>  <score>  (298) 
<NA>

$$$$
4djw
     RDKit          3D

 52 55  0  0  0  0  0  0  0  0999 V2000
   22.4950   11.8750   22.5810 C   0  0  0  0  0  0  0  0  0  0  0  0
   22.5380    9.4930   22.4640 N   0  0  0  0  0  0  0  0  0  0  0  0
   22.3600   13.0630   22.3480 O   0  0  0  0  0  0  0  0  0  0  0  0
   22.3390   10.6680   21.5610 C   0  0  0  0  0  0  0  0  0  0  0  0
   22.7860   11.3350   23.8120 N   0  0  0  0  0  0  0  0  0  0  0  0
   22.7800    9.9140   23.7010 C   0  0  0  0  0  0  0  0  0  0  0  0
   22.9970    9.1110   24.7490 N   0  0  0  0  0  0  0  0  0  0  0  0
   23.0220   12.1410   25.0180 C   0  0  0  0  0  0  0  0  0  0  0  0
   20.9020   10.6270   21.0050 C   0  0  0  0  0  0  0  0  0  0  0  0
   20.2720    9.4140   20.7470 C   0  0  0  0  0  0  0  0  0  0  0  0
   18.9690    9.3760   20.2600 C   0  0  0  0  0  0  0  0  0  0  0  0
   18.2800   10.5440   20.0210 C   0  0  0  0  0  0  0  0  0  0  0  0
   18.8920   11.7530   20.2590 C   0  0  0  0  0  0  0  0  0  0  0  0
   20.1950   11.7970   20.7440 C   0  0  0  0  0  0  0  0  0  0  0  0
   23.4880   10.6920   20.5300 C   0  0  0  0  0  0  0  0  0  0  0  0
   23.2110   10.7890   19.1730 C   0  0  0  0  0  0  0  0  0  0  0  0
   24.2350   10.8650   18.2430 C   0  0  0  0  0  0  0  0  0  0  0  0
   25.5500   10.8410   18.6560 C   0  0  0  0  0  0  0  0  0  0  0  0
   25.8710   10.7460   20.0070 C   0  0  0  0  0  0  0  0  0  0  0  0
   24.8260   10.6610   20.9430 C   0  0  0  0  0  0  0  0  0  0  0  0
    0.0000    0.0000    0.0000 H   0  0  0  0  0  0  0  0  0  0  0  0
    0.0000    0.0000    0.0000 H   0  0  0  0  0  0  0  0  0  0  0  0
    0.0000    0.0000    0.0000 H   0  0  0  0  0  0  0  0  0  0  0  0
    0.0000    0.0000    0.0000 H   0  0  0  0  0  0  0  0  0  0  0  0
    0.0000    0.0000    0.0000 H   0  0  0  0  0  0  0  0  0  0  0  0
    0.0000    0.0000    0.0000 H   0  0  0  0  0  0  0  0  0  0  0  0
    0.0000    0.0000    0.0000 H   0  0  0  0  0  0  0  0  0  0  0  0
    0.0000    0.0000    0.0000 H   0  0  0  0  0  0  0  0  0  0  0  0
    0.0000    0.0000    0.0000 H   0  0  0  0  0  0  0  0  0  0  0  0
    0.0000    0.0000    0.0000 H   0  0  0  0  0  0  0  0  0  0  0  0
    0.0000    0.0000    0.0000 H   0  0  0  0  0  0  0  0  0  0  0  0
    0.0000    0.0000    0.0000 H   0  0  0  0  0  0  0  0  0  0  0  0
    0.0000    0.0000    0.0000 H   0  0  0  0  0  0  0  0  0  0  0  0
    0.0000    0.0000    0.0000 H   0  0  0  0  0  0  0  0  0  0  0  0
   12.4241    5.2716    9.0718 C   0  0  0  0  0  0  0  0  0  0  0  0
   12.1240    6.3687    8.0948 C   0  0  0  0  0  0  0  0  0  0  0  0
   11.0365    7.1929    8.2712 C   0  0  0  0  0  0  0  0  0  0  0  0
   10.7273    8.2241    7.3842 C   0  0  0  0  0  0  0  0  0  0  0  0
   11.5605    8.3960    6.3065 C   0  0  0  0  0  0  0  0  0  0  0  0
   12.6480    7.5781    6.1223 C   0  0  0  0  0  0  0  0  0  0  0  0
   12.9564    6.5439    7.0129 C   0  0  0  0  0  0  0  0  0  0  0  0
   14.0618    5.7176    6.8180 O   0  0  0  0  0  0  0  0  0  0  0  0
   14.8735    5.9696    5.6636 C   0  0  0  0  0  0  0  0  0  0  0  0
   11.5686    5.1238    9.7623 H   0  0  0  0  0  0  0  0  0  0  0  0
   12.7287    4.3420    8.5478 H   0  0  0  0  0  0  0  0  0  0  0  0
   10.3761    7.0740    9.1105 H   0  0  0  0  0  0  0  0  0  0  0  0
    9.8519    8.8594    7.5544 H   0  0  0  0  0  0  0  0  0  0  0  0
   11.3406    9.1824    5.6110 H   0  0  0  0  0  0  0  0  0  0  0  0
   13.3141    7.6971    5.2756 H   0  0  0  0  0  0  0  0  0  0  0  0
   15.1918    7.0392    5.7034 H   0  0  0  0  0  0  0  0  0  0  0  0
   14.2638    5.8607    4.7445 H   0  0  0  0  0  0  0  0  0  0  0  0
   15.7931    5.3531    5.6715 H   0  0  0  0  0  0  0  0  0  0  0  0
  1  3  2  0
  1  4  1  0
  1  5  1  0
  2  4  1  0
  2  6  1  0
  4  9  1  0
  4 15  1  0
  5  6  1  0
  5  8  1  0
  6  7  2  3
  9 10  2  0
  9 14  1  0
 10 11  1  0
 11 12  2  0
 12 13  1  0
 13 14  2  0
 15 16  2  0
 15 20  1  0
 16 17  1  0
 17 18  2  0
 18 19  1  0
 19 20  2  0
  2 21  1  0
  7 22  1  0
  8 23  1  0
  8 24  1  0
  8 25  1  0
 10 26  1  0
 11 27  1  0
 12 28  1  0
 13 29  1  0
 14 30  1  0
 16 31  1  0
 17 32  1  0
 19 33  1  0
 20 34  1  0
 35 36  1  0
 36 37  2  0
 37 38  1  0
 38 39  2  0
 39 40  1  0
 40 41  2  0
 41 42  1  0
 42 43  1  0
 41 36  1  0
 35 44  1  0
 35 45  1  0
 37 46  1  0
 38 47  1  0
 39 48  1  0
 40 49  1  0
 43 50  1  0
 43 51  1  0
 43 52  1  0
 18 35  1  0
M  END
>  <attachment_point>  (299) 
32

>  <score>  (299) 
<NA>

$$$$
4djw
     RDKit          3D

 59 61  0  0  0  0  0  0  0  0999 V2000
   22.4950   11.8750   22.5810 C   0  0  0  0  0  0  0  0  0  0  0  0
   22.5380    9.4930   22.4640 N   0  0  0  0  0  0  0  0  0  0  0  0
   22.3600   13.0630   22.3480 O   0  0  0  0  0  0  0  0  0  0  0  0
   22.3390   10.6680   21.5610 C   0  0  0  0  0  0  0  0  0  0  0  0
   22.7860   11.3350   23.8120 N   0  0  0  0  0  0  0  0  0  0  0  0
   22.7800    9.9140   23.7010 C   0  0  0  0  0  0  0  0  0  0  0  0
   22.9970    9.1110   24.7490 N   0  0  0  0  0  0  0  0  0  0  0  0
   23.0220   12.1410   25.0180 C   0  0  0  0  0  0  0  0  0  0  0  0
   20.9020   10.6270   21.0050 C   0  0  0  0  0  0  0  0  0  0  0  0
   20.2720    9.4140   20.7470 C   0  0  0  0  0  0  0  0  0  0  0  0
   18.9690    9.3760   20.2600 C   0  0  0  0  0  0  0  0  0  0  0  0
   18.2800   10.5440   20.0210 C   0  0  0  0  0  0  0  0  0  0  0  0
   18.8920   11.7530   20.2590 C   0  0  0  0  0  0  0  0  0  0  0  0
   20.1950   11.7970   20.7440 C   0  0  0  0  0  0  0  0  0  0  0  0
   23.4880   10.6920   20.5300 C   0  0  0  0  0  0  0  0  0  0  0  0
   23.2110   10.7890   19.1730 C   0  0  0  0  0  0  0  0  0  0  0  0
   24.2350   10.8650   18.2430 C   0  0  0  0  0  0  0  0  0  0  0  0
   25.5500   10.8410   18.6560 C   0  0  0  0  0  0  0  0  0  0  0  0
   25.8710   10.7460   20.0070 C   0  0  0  0  0  0  0  0  0  0  0  0
   24.8260   10.6610   20.9430 C   0  0  0  0  0  0  0  0  0  0  0  0
    0.0000    0.0000    0.0000 H   0  0  0  0  0  0  0  0  0  0  0  0
    0.0000    0.0000    0.0000 H   0  0  0  0  0  0  0  0  0  0  0  0
    0.0000    0.0000    0.0000 H   0  0  0  0  0  0  0  0  0  0  0  0
    0.0000    0.0000    0.0000 H   0  0  0  0  0  0  0  0  0  0  0  0
    0.0000    0.0000    0.0000 H   0  0  0  0  0  0  0  0  0  0  0  0
    0.0000    0.0000    0.0000 H   0  0  0  0  0  0  0  0  0  0  0  0
    0.0000    0.0000    0.0000 H   0  0  0  0  0  0  0  0  0  0  0  0
    0.0000    0.0000    0.0000 H   0  0  0  0  0  0  0  0  0  0  0  0
    0.0000    0.0000    0.0000 H   0  0  0  0  0  0  0  0  0  0  0  0
    0.0000    0.0000    0.0000 H   0  0  0  0  0  0  0  0  0  0  0  0
    0.0000    0.0000    0.0000 H   0  0  0  0  0  0  0  0  0  0  0  0
    0.0000    0.0000    0.0000 H   0  0  0  0  0  0  0  0  0  0  0  0
    0.0000    0.0000    0.0000 H   0  0  0  0  0  0  0  0  0  0  0  0
    0.0000    0.0000    0.0000 H   0  0  0  0  0  0  0  0  0  0  0  0
   12.4542    5.2844    9.0938 C   0  0  0  0  0  0  0  0  0  0  0  0
   12.2302    3.7992    9.3590 C   0  0  0  0  0  0  0  0  0  0  0  0
   11.9062    3.5879   10.8503 C   0  0  0  0  0  0  0  0  0  0  0  0
   11.7065    2.0993   10.9924 C   0  0  0  0  0  0  0  0  0  0  0  0
   11.3867    1.6611   12.3935 C   0  0  0  0  0  0  0  0  0  0  0  0
   10.1156    2.3327   12.8261 C   0  0  0  0  0  0  0  0  0  0  0  0
    9.7118    1.9335   14.2331 C   0  0  0  0  0  0  0  0  0  0  0  0
    8.4453    2.6420   14.5844 C   0  0  0  0  0  0  0  0  0  0  0  0
   12.6080    5.3789    7.9992 H   0  0  0  0  0  0  0  0  0  0  0  0
   11.5629    5.8664    9.4028 H   0  0  0  0  0  0  0  0  0  0  0  0
   13.1457    3.2231    9.1179 H   0  0  0  0  0  0  0  0  0  0  0  0
   11.3565    3.5086    8.7400 H   0  0  0  0  0  0  0  0  0  0  0  0
   10.9544    4.1356   11.0576 H   0  0  0  0  0  0  0  0  0  0  0  0
   12.7502    3.9206   11.4559 H   0  0  0  0  0  0  0  0  0  0  0  0
   10.8702    1.8374   10.2796 H   0  0  0  0  0  0  0  0  0  0  0  0
   12.6156    1.6039   10.5934 H   0  0  0  0  0  0  0  0  0  0  0  0
   11.3056    0.5482   12.4274 H   0  0  0  0  0  0  0  0  0  0  0  0
   12.2523    1.9321   13.0387 H   0  0  0  0  0  0  0  0  0  0  0  0
   10.2817    3.4362   12.8073 H   0  0  0  0  0  0  0  0  0  0  0  0
    9.3287    2.0914   12.0877 H   0  0  0  0  0  0  0  0  0  0  0  0
    9.4640    0.8352   14.1705 H   0  0  0  0  0  0  0  0  0  0  0  0
   10.5254    2.0343   14.9489 H   0  0  0  0  0  0  0  0  0  0  0  0
    7.8325    2.7059   13.6384 H   0  0  0  0  0  0  0  0  0  0  0  0
    7.8154    2.0701   15.3046 H   0  0  0  0  0  0  0  0  0  0  0  0
    8.6007    3.6573   15.0099 H   0  0  0  0  0  0  0  0  0  0  0  0
  1  3  2  0
  1  4  1  0
  1  5  1  0
  2  4  1  0
  2  6  1  0
  4  9  1  0
  4 15  1  0
  5  6  1  0
  5  8  1  0
  6  7  2  3
  9 10  2  0
  9 14  1  0
 10 11  1  0
 11 12  2  0
 12 13  1  0
 13 14  2  0
 15 16  2  0
 15 20  1  0
 16 17  1  0
 17 18  2  0
 18 19  1  0
 19 20  2  0
  2 21  1  0
  7 22  1  0
  8 23  1  0
  8 24  1  0
  8 25  1  0
 10 26  1  0
 11 27  1  0
 12 28  1  0
 13 29  1  0
 14 30  1  0
 16 31  1  0
 17 32  1  0
 19 33  1  0
 20 34  1  0
 35 36  1  0
 36 37  1  0
 37 38  1  0
 38 39  1  0
 39 40  1  0
 40 41  1  0
 41 42  1  0
 35 43  1  0
 35 44  1  0
 36 45  1  0
 36 46  1  0
 37 47  1  0
 37 48  1  0
 38 49  1  0
 38 50  1  0
 39 51  1  0
 39 52  1  0
 40 53  1  0
 40 54  1  0
 41 55  1  0
 41 56  1  0
 42 57  1  0
 42 58  1  0
 42 59  1  0
 18 35  1  0
M  END
>  <attachment_point>  (300) 
32

>  <score>  (300) 
<NA>

$$$$
4djw
     RDKit          3D

 43 46  0  0  0  0  0  0  0  0999 V2000
   22.4950   11.8750   22.5810 C   0  0  0  0  0  0  0  0  0  0  0  0
   22.5380    9.4930   22.4640 N   0  0  0  0  0  0  0  0  0  0  0  0
   22.3600   13.0630   22.3480 O   0  0  0  0  0  0  0  0  0  0  0  0
   22.3390   10.6680   21.5610 C   0  0  0  0  0  0  0  0  0  0  0  0
   22.7860   11.3350   23.8120 N   0  0  0  0  0  0  0  0  0  0  0  0
   22.7800    9.9140   23.7010 C   0  0  0  0  0  0  0  0  0  0  0  0
   22.9970    9.1110   24.7490 N   0  0  0  0  0  0  0  0  0  0  0  0
   23.0220   12.1410   25.0180 C   0  0  0  0  0  0  0  0  0  0  0  0
   20.9020   10.6270   21.0050 C   0  0  0  0  0  0  0  0  0  0  0  0
   20.2720    9.4140   20.7470 C   0  0  0  0  0  0  0  0  0  0  0  0
   18.9690    9.3760   20.2600 C   0  0  0  0  0  0  0  0  0  0  0  0
   18.2800   10.5440   20.0210 C   0  0  0  0  0  0  0  0  0  0  0  0
   18.8920   11.7530   20.2590 C   0  0  0  0  0  0  0  0  0  0  0  0
   20.1950   11.7970   20.7440 C   0  0  0  0  0  0  0  0  0  0  0  0
   23.4880   10.6920   20.5300 C   0  0  0  0  0  0  0  0  0  0  0  0
   23.2110   10.7890   19.1730 C   0  0  0  0  0  0  0  0  0  0  0  0
   24.2350   10.8650   18.2430 C   0  0  0  0  0  0  0  0  0  0  0  0
   25.5500   10.8410   18.6560 C   0  0  0  0  0  0  0  0  0  0  0  0
   25.8710   10.7460   20.0070 C   0  0  0  0  0  0  0  0  0  0  0  0
   24.8260   10.6610   20.9430 C   0  0  0  0  0  0  0  0  0  0  0  0
    0.0000    0.0000    0.0000 H   0  0  0  0  0  0  0  0  0  0  0  0
    0.0000    0.0000    0.0000 H   0  0  0  0  0  0  0  0  0  0  0  0
    0.0000    0.0000    0.0000 H   0  0  0  0  0  0  0  0  0  0  0  0
    0.0000    0.0000    0.0000 H   0  0  0  0  0  0  0  0  0  0  0  0
    0.0000    0.0000    0.0000 H   0  0  0  0  0  0  0  0  0  0  0  0
    0.0000    0.0000    0.0000 H   0  0  0  0  0  0  0  0  0  0  0  0
    0.0000    0.0000    0.0000 H   0  0  0  0  0  0  0  0  0  0  0  0
    0.0000    0.0000    0.0000 H   0  0  0  0  0  0  0  0  0  0  0  0
    0.0000    0.0000    0.0000 H   0  0  0  0  0  0  0  0  0  0  0  0
    0.0000    0.0000    0.0000 H   0  0  0  0  0  0  0  0  0  0  0  0
    0.0000    0.0000    0.0000 H   0  0  0  0  0  0  0  0  0  0  0  0
    0.0000    0.0000    0.0000 H   0  0  0  0  0  0  0  0  0  0  0  0
    0.0000    0.0000    0.0000 H   0  0  0  0  0  0  0  0  0  0  0  0
    0.0000    0.0000    0.0000 H   0  0  0  0  0  0  0  0  0  0  0  0
   12.4563    5.2853    9.0953 N   0  0  0  0  0  0  0  0  0  0  0  0
   11.5677    4.2244    9.3910 C   0  0  0  0  0  0  0  0  0  0  0  0
   11.6042    3.5097   10.4260 O   0  0  0  0  0  0  0  0  0  0  0  0
   10.6243    4.1145    8.3013 C   0  0  0  0  0  0  0  0  0  0  0  0
   10.8923    5.0257    7.3957 C   0  0  0  0  0  0  0  0  0  0  0  0
   12.0302    5.7879    7.8406 C   0  0  0  0  0  0  0  0  0  0  0  0
   12.5638    6.7560    7.2059 O   0  0  0  0  0  0  0  0  0  0  0  0
    9.8068    3.3823    8.2366 H   0  0  0  0  0  0  0  0  0  0  0  0
   10.3429    5.1817    6.4574 H   0  0  0  0  0  0  0  0  0  0  0  0
  1  3  2  0
  1  4  1  0
  1  5  1  0
  2  4  1  0
  2  6  1  0
  4  9  1  0
  4 15  1  0
  5  6  1  0
  5  8  1  0
  6  7  2  3
  9 10  2  0
  9 14  1  0
 10 11  1  0
 11 12  2  0
 12 13  1  0
 13 14  2  0
 15 16  2  0
 15 20  1  0
 16 17  1  0
 17 18  2  0
 18 19  1  0
 19 20  2  0
  2 21  1  0
  7 22  1  0
  8 23  1  0
  8 24  1  0
  8 25  1  0
 10 26  1  0
 11 27  1  0
 12 28  1  0
 13 29  1  0
 14 30  1  0
 16 31  1  0
 17 32  1  0
 19 33  1  0
 20 34  1  0
 35 36  1  0
 36 37  2  0
 36 38  1  0
 38 39  2  0
 39 40  1  0
 40 41  2  0
 40 35  1  0
 38 42  1  0
 39 43  1  0
 18 35  1  0
M  END
>  <attachment_point>  (301) 
32

>  <score>  (301) 
<NA>

$$$$
4djw
     RDKit          3D

 41 43  0  0  0  0  0  0  0  0999 V2000
   22.4950   11.8750   22.5810 C   0  0  0  0  0  0  0  0  0  0  0  0
   22.5380    9.4930   22.4640 N   0  0  0  0  0  0  0  0  0  0  0  0
   22.3600   13.0630   22.3480 O   0  0  0  0  0  0  0  0  0  0  0  0
   22.3390   10.6680   21.5610 C   0  0  0  0  0  0  0  0  0  0  0  0
   22.7860   11.3350   23.8120 N   0  0  0  0  0  0  0  0  0  0  0  0
   22.7800    9.9140   23.7010 C   0  0  0  0  0  0  0  0  0  0  0  0
   22.9970    9.1110   24.7490 N   0  0  0  0  0  0  0  0  0  0  0  0
   23.0220   12.1410   25.0180 C   0  0  0  0  0  0  0  0  0  0  0  0
   20.9020   10.6270   21.0050 C   0  0  0  0  0  0  0  0  0  0  0  0
   20.2720    9.4140   20.7470 C   0  0  0  0  0  0  0  0  0  0  0  0
   18.9690    9.3760   20.2600 C   0  0  0  0  0  0  0  0  0  0  0  0
   18.2800   10.5440   20.0210 C   0  0  0  0  0  0  0  0  0  0  0  0
   18.8920   11.7530   20.2590 C   0  0  0  0  0  0  0  0  0  0  0  0
   20.1950   11.7970   20.7440 C   0  0  0  0  0  0  0  0  0  0  0  0
   23.4880   10.6920   20.5300 C   0  0  0  0  0  0  0  0  0  0  0  0
   23.2110   10.7890   19.1730 C   0  0  0  0  0  0  0  0  0  0  0  0
   24.2350   10.8650   18.2430 C   0  0  0  0  0  0  0  0  0  0  0  0
   25.5500   10.8410   18.6560 C   0  0  0  0  0  0  0  0  0  0  0  0
   25.8710   10.7460   20.0070 C   0  0  0  0  0  0  0  0  0  0  0  0
   24.8260   10.6610   20.9430 C   0  0  0  0  0  0  0  0  0  0  0  0
    0.0000    0.0000    0.0000 H   0  0  0  0  0  0  0  0  0  0  0  0
    0.0000    0.0000    0.0000 H   0  0  0  0  0  0  0  0  0  0  0  0
    0.0000    0.0000    0.0000 H   0  0  0  0  0  0  0  0  0  0  0  0
    0.0000    0.0000    0.0000 H   0  0  0  0  0  0  0  0  0  0  0  0
    0.0000    0.0000    0.0000 H   0  0  0  0  0  0  0  0  0  0  0  0
    0.0000    0.0000    0.0000 H   0  0  0  0  0  0  0  0  0  0  0  0
    0.0000    0.0000    0.0000 H   0  0  0  0  0  0  0  0  0  0  0  0
    0.0000    0.0000    0.0000 H   0  0  0  0  0  0  0  0  0  0  0  0
    0.0000    0.0000    0.0000 H   0  0  0  0  0  0  0  0  0  0  0  0
    0.0000    0.0000    0.0000 H   0  0  0  0  0  0  0  0  0  0  0  0
    0.0000    0.0000    0.0000 H   0  0  0  0  0  0  0  0  0  0  0  0
    0.0000    0.0000    0.0000 H   0  0  0  0  0  0  0  0  0  0  0  0
    0.0000    0.0000    0.0000 H   0  0  0  0  0  0  0  0  0  0  0  0
    0.0000    0.0000    0.0000 H   0  0  0  0  0  0  0  0  0  0  0  0
   12.5450    5.3229    9.1601 O   0  0  0  0  0  0  0  0  0  0  0  0
   12.2217    5.8565    7.6069 S   0  0  0  0  0  6  0  0  0  0  0  0
   13.0429    5.0094    6.4006 N   0  0  0  0  0  0  0  0  0  0  0  0
   12.5888    7.3188    7.5570 O   0  0  0  0  0  0  0  0  0  0  0  0
   10.7536    5.7658    7.3783 O   0  0  0  0  0  0  0  0  0  0  0  0
   14.0602    4.9375    6.5008 H   0  0  0  0  0  0  0  0  0  0  0  0
   12.5645    4.1926    6.0056 H   0  0  0  0  0  0  0  0  0  0  0  0
  1  3  2  0
  1  4  1  0
  1  5  1  0
  2  4  1  0
  2  6  1  0
  4  9  1  0
  4 15  1  0
  5  6  1  0
  5  8  1  0
  6  7  2  3
  9 10  2  0
  9 14  1  0
 10 11  1  0
 11 12  2  0
 12 13  1  0
 13 14  2  0
 15 16  2  0
 15 20  1  0
 16 17  1  0
 17 18  2  0
 18 19  1  0
 19 20  2  0
  2 21  1  0
  7 22  1  0
  8 23  1  0
  8 24  1  0
  8 25  1  0
 10 26  1  0
 11 27  1  0
 12 28  1  0
 13 29  1  0
 14 30  1  0
 16 31  1  0
 17 32  1  0
 19 33  1  0
 20 34  1  0
 35 36  1  0
 36 37  1  0
 36 38  2  0
 36 39  2  0
 37 40  1  0
 37 41  1  0
 18 35  1  0
M  END
>  <attachment_point>  (302) 
32

>  <score>  (302) 
<NA>

$$$$
4djw
     RDKit          3D

 52 56  0  0  0  0  0  0  0  0999 V2000
   22.4950   11.8750   22.5810 C   0  0  0  0  0  0  0  0  0  0  0  0
   22.5380    9.4930   22.4640 N   0  0  0  0  0  0  0  0  0  0  0  0
   22.3600   13.0630   22.3480 O   0  0  0  0  0  0  0  0  0  0  0  0
   22.3390   10.6680   21.5610 C   0  0  0  0  0  0  0  0  0  0  0  0
   22.7860   11.3350   23.8120 N   0  0  0  0  0  0  0  0  0  0  0  0
   22.7800    9.9140   23.7010 C   0  0  0  0  0  0  0  0  0  0  0  0
   22.9970    9.1110   24.7490 N   0  0  0  0  0  0  0  0  0  0  0  0
   23.0220   12.1410   25.0180 C   0  0  0  0  0  0  0  0  0  0  0  0
   20.9020   10.6270   21.0050 C   0  0  0  0  0  0  0  0  0  0  0  0
   20.2720    9.4140   20.7470 C   0  0  0  0  0  0  0  0  0  0  0  0
   18.9690    9.3760   20.2600 C   0  0  0  0  0  0  0  0  0  0  0  0
   18.2800   10.5440   20.0210 C   0  0  0  0  0  0  0  0  0  0  0  0
   18.8920   11.7530   20.2590 C   0  0  0  0  0  0  0  0  0  0  0  0
   20.1950   11.7970   20.7440 C   0  0  0  0  0  0  0  0  0  0  0  0
   23.4880   10.6920   20.5300 C   0  0  0  0  0  0  0  0  0  0  0  0
   23.2110   10.7890   19.1730 C   0  0  0  0  0  0  0  0  0  0  0  0
   24.2350   10.8650   18.2430 C   0  0  0  0  0  0  0  0  0  0  0  0
   25.5500   10.8410   18.6560 C   0  0  0  0  0  0  0  0  0  0  0  0
   25.8710   10.7460   20.0070 C   0  0  0  0  0  0  0  0  0  0  0  0
   24.8260   10.6610   20.9430 C   0  0  0  0  0  0  0  0  0  0  0  0
    0.0000    0.0000    0.0000 H   0  0  0  0  0  0  0  0  0  0  0  0
    0.0000    0.0000    0.0000 H   0  0  0  0  0  0  0  0  0  0  0  0
    0.0000    0.0000    0.0000 H   0  0  0  0  0  0  0  0  0  0  0  0
    0.0000    0.0000    0.0000 H   0  0  0  0  0  0  0  0  0  0  0  0
    0.0000    0.0000    0.0000 H   0  0  0  0  0  0  0  0  0  0  0  0
    0.0000    0.0000    0.0000 H   0  0  0  0  0  0  0  0  0  0  0  0
    0.0000    0.0000    0.0000 H   0  0  0  0  0  0  0  0  0  0  0  0
    0.0000    0.0000    0.0000 H   0  0  0  0  0  0  0  0  0  0  0  0
    0.0000    0.0000    0.0000 H   0  0  0  0  0  0  0  0  0  0  0  0
    0.0000    0.0000    0.0000 H   0  0  0  0  0  0  0  0  0  0  0  0
    0.0000    0.0000    0.0000 H   0  0  0  0  0  0  0  0  0  0  0  0
    0.0000    0.0000    0.0000 H   0  0  0  0  0  0  0  0  0  0  0  0
    0.0000    0.0000    0.0000 H   0  0  0  0  0  0  0  0  0  0  0  0
    0.0000    0.0000    0.0000 H   0  0  0  0  0  0  0  0  0  0  0  0
   12.4346    5.2760    9.0794 C   0  0  0  0  0  0  0  0  0  0  0  0
   12.0380    3.9766    9.5929 N   0  0  0  0  0  0  0  0  0  0  0  0
   11.0783    3.7188   10.5989 C   0  0  0  0  0  0  0  0  0  0  0  0
   10.4086    4.5896   11.2147 O   0  0  0  0  0  0  0  0  0  0  0  0
   10.9616    2.2858   10.8360 C   0  0  0  0  0  0  0  0  0  0  0  0
   10.2073    1.4874   11.6755 C   0  0  0  0  0  0  0  0  0  0  0  0
   10.3218    0.1131   11.6707 C   0  0  0  0  0  0  0  0  0  0  0  0
   11.2096   -0.5154   10.8110 C   0  0  0  0  0  0  0  0  0  0  0  0
   11.9674    0.2721    9.9688 C   0  0  0  0  0  0  0  0  0  0  0  0
   11.8458    1.6608    9.9799 C   0  0  0  0  0  0  0  0  0  0  0  0
   12.5293    2.7015    9.1932 C   0  0  0  0  0  0  0  0  0  0  0  0
   13.4016    2.4695    8.3169 O   0  0  0  0  0  0  0  0  0  0  0  0
   12.7420    5.1548    8.0286 H   0  0  0  0  0  0  0  0  0  0  0  0
   11.6078    6.0193    9.2102 H   0  0  0  0  0  0  0  0  0  0  0  0
    9.5116    1.9610   12.3506 H   0  0  0  0  0  0  0  0  0  0  0  0
    9.7364   -0.5358   12.3245 H   0  0  0  0  0  0  0  0  0  0  0  0
   11.2993   -1.6056   10.8084 H   0  0  0  0  0  0  0  0  0  0  0  0
   12.6796   -0.2015    9.2768 H   0  0  0  0  0  0  0  0  0  0  0  0
  1  3  2  0
  1  4  1  0
  1  5  1  0
  2  4  1  0
  2  6  1  0
  4  9  1  0
  4 15  1  0
  5  6  1  0
  5  8  1  0
  6  7  2  3
  9 10  2  0
  9 14  1  0
 10 11  1  0
 11 12  2  0
 12 13  1  0
 13 14  2  0
 15 16  2  0
 15 20  1  0
 16 17  1  0
 17 18  2  0
 18 19  1  0
 19 20  2  0
  2 21  1  0
  7 22  1  0
  8 23  1  0
  8 24  1  0
  8 25  1  0
 10 26  1  0
 11 27  1  0
 12 28  1  0
 13 29  1  0
 14 30  1  0
 16 31  1  0
 17 32  1  0
 19 33  1  0
 20 34  1  0
 35 36  1  0
 36 37  1  0
 37 38  2  0
 37 39  1  0
 39 40  2  0
 40 41  1  0
 41 42  2  0
 42 43  1  0
 43 44  2  0
 44 45  1  0
 45 46  2  0
 45 36  1  0
 44 39  1  0
 35 47  1  0
 35 48  1  0
 40 49  1  0
 41 50  1  0
 42 51  1  0
 43 52  1  0
 18 35  1  0
M  END
>  <attachment_point>  (303) 
32

>  <score>  (303) 
<NA>

$$$$
4djw
     RDKit          3D

 43 45  0  0  0  0  0  0  0  0999 V2000
   22.4950   11.8750   22.5810 C   0  0  0  0  0  0  0  0  0  0  0  0
   22.5380    9.4930   22.4640 N   0  0  0  0  0  0  0  0  0  0  0  0
   22.3600   13.0630   22.3480 O   0  0  0  0  0  0  0  0  0  0  0  0
   22.3390   10.6680   21.5610 C   0  0  0  0  0  0  0  0  0  0  0  0
   22.7860   11.3350   23.8120 N   0  0  0  0  0  0  0  0  0  0  0  0
   22.7800    9.9140   23.7010 C   0  0  0  0  0  0  0  0  0  0  0  0
   22.9970    9.1110   24.7490 N   0  0  0  0  0  0  0  0  0  0  0  0
   23.0220   12.1410   25.0180 C   0  0  0  0  0  0  0  0  0  0  0  0
   20.9020   10.6270   21.0050 C   0  0  0  0  0  0  0  0  0  0  0  0
   20.2720    9.4140   20.7470 C   0  0  0  0  0  0  0  0  0  0  0  0
   18.9690    9.3760   20.2600 C   0  0  0  0  0  0  0  0  0  0  0  0
   18.2800   10.5440   20.0210 C   0  0  0  0  0  0  0  0  0  0  0  0
   18.8920   11.7530   20.2590 C   0  0  0  0  0  0  0  0  0  0  0  0
   20.1950   11.7970   20.7440 C   0  0  0  0  0  0  0  0  0  0  0  0
   23.4880   10.6920   20.5300 C   0  0  0  0  0  0  0  0  0  0  0  0
   23.2110   10.7890   19.1730 C   0  0  0  0  0  0  0  0  0  0  0  0
   24.2350   10.8650   18.2430 C   0  0  0  0  0  0  0  0  0  0  0  0
   25.5500   10.8410   18.6560 C   0  0  0  0  0  0  0  0  0  0  0  0
   25.8710   10.7460   20.0070 C   0  0  0  0  0  0  0  0  0  0  0  0
   24.8260   10.6610   20.9430 C   0  0  0  0  0  0  0  0  0  0  0  0
    0.0000    0.0000    0.0000 H   0  0  0  0  0  0  0  0  0  0  0  0
    0.0000    0.0000    0.0000 H   0  0  0  0  0  0  0  0  0  0  0  0
    0.0000    0.0000    0.0000 H   0  0  0  0  0  0  0  0  0  0  0  0
    0.0000    0.0000    0.0000 H   0  0  0  0  0  0  0  0  0  0  0  0
    0.0000    0.0000    0.0000 H   0  0  0  0  0  0  0  0  0  0  0  0
    0.0000    0.0000    0.0000 H   0  0  0  0  0  0  0  0  0  0  0  0
    0.0000    0.0000    0.0000 H   0  0  0  0  0  0  0  0  0  0  0  0
    0.0000    0.0000    0.0000 H   0  0  0  0  0  0  0  0  0  0  0  0
    0.0000    0.0000    0.0000 H   0  0  0  0  0  0  0  0  0  0  0  0
    0.0000    0.0000    0.0000 H   0  0  0  0  0  0  0  0  0  0  0  0
    0.0000    0.0000    0.0000 H   0  0  0  0  0  0  0  0  0  0  0  0
    0.0000    0.0000    0.0000 H   0  0  0  0  0  0  0  0  0  0  0  0
    0.0000    0.0000    0.0000 H   0  0  0  0  0  0  0  0  0  0  0  0
    0.0000    0.0000    0.0000 H   0  0  0  0  0  0  0  0  0  0  0  0
   12.4315    5.2748    9.0772 C   0  0  0  0  0  0  0  0  0  0  0  0
   12.1638    4.0132    9.5494 F   0  0  0  0  0  0  0  0  0  0  0  0
   11.4117    6.1543    9.3530 F   0  0  0  0  0  0  0  0  0  0  0  0
   12.9342    5.2820    7.3558 P   0  0  0  0  0  5  0  0  0  0  0  0
   14.3510    5.7885    7.2154 O   0  0  0  0  0  0  0  0  0  0  0  0
   11.9191    6.2962    6.4676 O   0  0  0  0  0  0  0  0  0  0  0  0
   12.8185    3.7340    6.6500 O   0  0  0  0  0  0  0  0  0  0  0  0
   11.1233    5.8256    6.1361 H   0  0  0  0  0  0  0  0  0  0  0  0
   13.5003    3.1270    7.0371 H   0  0  0  0  0  0  0  0  0  0  0  0
  1  3  2  0
  1  4  1  0
  1  5  1  0
  2  4  1  0
  2  6  1  0
  4  9  1  0
  4 15  1  0
  5  6  1  0
  5  8  1  0
  6  7  2  3
  9 10  2  0
  9 14  1  0
 10 11  1  0
 11 12  2  0
 12 13  1  0
 13 14  2  0
 15 16  2  0
 15 20  1  0
 16 17  1  0
 17 18  2  0
 18 19  1  0
 19 20  2  0
  2 21  1  0
  7 22  1  0
  8 23  1  0
  8 24  1  0
  8 25  1  0
 10 26  1  0
 11 27  1  0
 12 28  1  0
 13 29  1  0
 14 30  1  0
 16 31  1  0
 17 32  1  0
 19 33  1  0
 20 34  1  0
 35 36  1  0
 35 37  1  0
 35 38  1  0
 38 39  2  0
 38 40  1  0
 38 41  1  0
 40 42  1  0
 41 43  1  0
 18 35  1  0
M  END
>  <attachment_point>  (304) 
32

>  <score>  (304) 
<NA>

$$$$
4djw
     RDKit          3D

 48 51  0  0  0  0  0  0  0  0999 V2000
   22.4950   11.8750   22.5810 C   0  0  0  0  0  0  0  0  0  0  0  0
   22.5380    9.4930   22.4640 N   0  0  0  0  0  0  0  0  0  0  0  0
   22.3600   13.0630   22.3480 O   0  0  0  0  0  0  0  0  0  0  0  0
   22.3390   10.6680   21.5610 C   0  0  0  0  0  0  0  0  0  0  0  0
   22.7860   11.3350   23.8120 N   0  0  0  0  0  0  0  0  0  0  0  0
   22.7800    9.9140   23.7010 C   0  0  0  0  0  0  0  0  0  0  0  0
   22.9970    9.1110   24.7490 N   0  0  0  0  0  0  0  0  0  0  0  0
   23.0220   12.1410   25.0180 C   0  0  0  0  0  0  0  0  0  0  0  0
   20.9020   10.6270   21.0050 C   0  0  0  0  0  0  0  0  0  0  0  0
   20.2720    9.4140   20.7470 C   0  0  0  0  0  0  0  0  0  0  0  0
   18.9690    9.3760   20.2600 C   0  0  0  0  0  0  0  0  0  0  0  0
   18.2800   10.5440   20.0210 C   0  0  0  0  0  0  0  0  0  0  0  0
   18.8920   11.7530   20.2590 C   0  0  0  0  0  0  0  0  0  0  0  0
   20.1950   11.7970   20.7440 C   0  0  0  0  0  0  0  0  0  0  0  0
   23.4880   10.6920   20.5300 C   0  0  0  0  0  0  0  0  0  0  0  0
   23.2110   10.7890   19.1730 C   0  0  0  0  0  0  0  0  0  0  0  0
   24.2350   10.8650   18.2430 C   0  0  0  0  0  0  0  0  0  0  0  0
   25.5500   10.8410   18.6560 C   0  0  0  0  0  0  0  0  0  0  0  0
   25.8710   10.7460   20.0070 C   0  0  0  0  0  0  0  0  0  0  0  0
   24.8260   10.6610   20.9430 C   0  0  0  0  0  0  0  0  0  0  0  0
    0.0000    0.0000    0.0000 H   0  0  0  0  0  0  0  0  0  0  0  0
    0.0000    0.0000    0.0000 H   0  0  0  0  0  0  0  0  0  0  0  0
    0.0000    0.0000    0.0000 H   0  0  0  0  0  0  0  0  0  0  0  0
    0.0000    0.0000    0.0000 H   0  0  0  0  0  0  0  0  0  0  0  0
    0.0000    0.0000    0.0000 H   0  0  0  0  0  0  0  0  0  0  0  0
    0.0000    0.0000    0.0000 H   0  0  0  0  0  0  0  0  0  0  0  0
    0.0000    0.0000    0.0000 H   0  0  0  0  0  0  0  0  0  0  0  0
    0.0000    0.0000    0.0000 H   0  0  0  0  0  0  0  0  0  0  0  0
    0.0000    0.0000    0.0000 H   0  0  0  0  0  0  0  0  0  0  0  0
    0.0000    0.0000    0.0000 H   0  0  0  0  0  0  0  0  0  0  0  0
    0.0000    0.0000    0.0000 H   0  0  0  0  0  0  0  0  0  0  0  0
    0.0000    0.0000    0.0000 H   0  0  0  0  0  0  0  0  0  0  0  0
    0.0000    0.0000    0.0000 H   0  0  0  0  0  0  0  0  0  0  0  0
    0.0000    0.0000    0.0000 H   0  0  0  0  0  0  0  0  0  0  0  0
   12.4309    5.2745    9.0768 C   0  0  0  0  0  0  0  0  0  0  0  0
   11.2285    4.9798    9.6769 C   0  0  0  0  0  0  0  0  0  0  0  0
   10.1475    4.5271    8.9284 C   0  0  0  0  0  0  0  0  0  0  0  0
   10.3340    4.3937    7.6074 N   0  0  0  0  0  0  0  0  0  0  0  0
   11.4654    4.6612    6.9758 C   0  0  0  0  0  0  0  0  0  0  0  0
   11.5979    4.5045    5.6132 O   0  0  0  0  0  0  0  0  0  0  0  0
   10.4886    4.0401    4.8462 C   0  0  0  0  0  0  0  0  0  0  0  0
   12.5404    5.1117    7.7224 C   0  0  0  0  0  0  0  0  0  0  0  0
   11.1252    5.1019   10.7387 H   0  0  0  0  0  0  0  0  0  0  0  0
    9.2469    4.3202    9.4729 H   0  0  0  0  0  0  0  0  0  0  0  0
   10.7887    3.6582    3.8589 H   0  0  0  0  0  0  0  0  0  0  0  0
    9.7398    4.8542    4.7443 H   0  0  0  0  0  0  0  0  0  0  0  0
    9.9843    3.2189    5.4141 H   0  0  0  0  0  0  0  0  0  0  0  0
   13.5032    5.3527    7.2765 H   0  0  0  0  0  0  0  0  0  0  0  0
  1  3  2  0
  1  4  1  0
  1  5  1  0
  2  4  1  0
  2  6  1  0
  4  9  1  0
  4 15  1  0
  5  6  1  0
  5  8  1  0
  6  7  2  3
  9 10  2  0
  9 14  1  0
 10 11  1  0
 11 12  2  0
 12 13  1  0
 13 14  2  0
 15 16  2  0
 15 20  1  0
 16 17  1  0
 17 18  2  0
 18 19  1  0
 19 20  2  0
  2 21  1  0
  7 22  1  0
  8 23  1  0
  8 24  1  0
  8 25  1  0
 10 26  1  0
 11 27  1  0
 12 28  1  0
 13 29  1  0
 14 30  1  0
 16 31  1  0
 17 32  1  0
 19 33  1  0
 20 34  1  0
 35 36  2  0
 36 37  1  0
 37 38  2  0
 38 39  1  0
 39 40  1  0
 40 41  1  0
 39 42  2  0
 42 35  1  0
 36 43  1  0
 37 44  1  0
 41 45  1  0
 41 46  1  0
 41 47  1  0
 42 48  1  0
 18 35  1  0
M  END
>  <attachment_point>  (305) 
32

>  <score>  (305) 
<NA>

$$$$
4djw
     RDKit          3D

 45 48  0  0  0  0  0  0  0  0999 V2000
   22.4950   11.8750   22.5810 C   0  0  0  0  0  0  0  0  0  0  0  0
   22.5380    9.4930   22.4640 N   0  0  0  0  0  0  0  0  0  0  0  0
   22.3600   13.0630   22.3480 O   0  0  0  0  0  0  0  0  0  0  0  0
   22.3390   10.6680   21.5610 C   0  0  0  0  0  0  0  0  0  0  0  0
   22.7860   11.3350   23.8120 N   0  0  0  0  0  0  0  0  0  0  0  0
   22.7800    9.9140   23.7010 C   0  0  0  0  0  0  0  0  0  0  0  0
   22.9970    9.1110   24.7490 N   0  0  0  0  0  0  0  0  0  0  0  0
   23.0220   12.1410   25.0180 C   0  0  0  0  0  0  0  0  0  0  0  0
   20.9020   10.6270   21.0050 C   0  0  0  0  0  0  0  0  0  0  0  0
   20.2720    9.4140   20.7470 C   0  0  0  0  0  0  0  0  0  0  0  0
   18.9690    9.3760   20.2600 C   0  0  0  0  0  0  0  0  0  0  0  0
   18.2800   10.5440   20.0210 C   0  0  0  0  0  0  0  0  0  0  0  0
   18.8920   11.7530   20.2590 C   0  0  0  0  0  0  0  0  0  0  0  0
   20.1950   11.7970   20.7440 C   0  0  0  0  0  0  0  0  0  0  0  0
   23.4880   10.6920   20.5300 C   0  0  0  0  0  0  0  0  0  0  0  0
   23.2110   10.7890   19.1730 C   0  0  0  0  0  0  0  0  0  0  0  0
   24.2350   10.8650   18.2430 C   0  0  0  0  0  0  0  0  0  0  0  0
   25.5500   10.8410   18.6560 C   0  0  0  0  0  0  0  0  0  0  0  0
   25.8710   10.7460   20.0070 C   0  0  0  0  0  0  0  0  0  0  0  0
   24.8260   10.6610   20.9430 C   0  0  0  0  0  0  0  0  0  0  0  0
    0.0000    0.0000    0.0000 H   0  0  0  0  0  0  0  0  0  0  0  0
    0.0000    0.0000    0.0000 H   0  0  0  0  0  0  0  0  0  0  0  0
    0.0000    0.0000    0.0000 H   0  0  0  0  0  0  0  0  0  0  0  0
    0.0000    0.0000    0.0000 H   0  0  0  0  0  0  0  0  0  0  0  0
    0.0000    0.0000    0.0000 H   0  0  0  0  0  0  0  0  0  0  0  0
    0.0000    0.0000    0.0000 H   0  0  0  0  0  0  0  0  0  0  0  0
    0.0000    0.0000    0.0000 H   0  0  0  0  0  0  0  0  0  0  0  0
    0.0000    0.0000    0.0000 H   0  0  0  0  0  0  0  0  0  0  0  0
    0.0000    0.0000    0.0000 H   0  0  0  0  0  0  0  0  0  0  0  0
    0.0000    0.0000    0.0000 H   0  0  0  0  0  0  0  0  0  0  0  0
    0.0000    0.0000    0.0000 H   0  0  0  0  0  0  0  0  0  0  0  0
    0.0000    0.0000    0.0000 H   0  0  0  0  0  0  0  0  0  0  0  0
    0.0000    0.0000    0.0000 H   0  0  0  0  0  0  0  0  0  0  0  0
    0.0000    0.0000    0.0000 H   0  0  0  0  0  0  0  0  0  0  0  0
   12.4453    5.2806    9.0872 C   0  0  0  0  0  0  0  0  0  0  0  0
   11.3653    6.1279    8.9291 C   0  0  0  0  0  0  0  0  0  0  0  0
   10.3191    5.6636    8.1554 C   0  0  0  0  0  0  0  0  0  0  0  0
   10.3800    4.4410    7.5971 N   0  0  0  0  0  0  0  0  0  0  0  0
   11.4285    3.6194    7.7510 C   0  0  0  0  0  0  0  0  0  0  0  0
   11.4387    2.3383    7.1378 N   0  0  0  0  0  0  0  0  0  0  0  0
   12.4549    4.0624    8.5041 N   0  0  0  0  0  0  0  0  0  0  0  0
   11.3682    7.1023    9.4012 H   0  0  0  0  0  0  0  0  0  0  0  0
    9.4685    6.3252    8.0282 H   0  0  0  0  0  0  0  0  0  0  0  0
   12.1848    2.1387    6.4424 H   0  0  0  0  0  0  0  0  0  0  0  0
   10.7387    1.5984    7.3521 H   0  0  0  0  0  0  0  0  0  0  0  0
  1  3  2  0
  1  4  1  0
  1  5  1  0
  2  4  1  0
  2  6  1  0
  4  9  1  0
  4 15  1  0
  5  6  1  0
  5  8  1  0
  6  7  2  3
  9 10  2  0
  9 14  1  0
 10 11  1  0
 11 12  2  0
 12 13  1  0
 13 14  2  0
 15 16  2  0
 15 20  1  0
 16 17  1  0
 17 18  2  0
 18 19  1  0
 19 20  2  0
  2 21  1  0
  7 22  1  0
  8 23  1  0
  8 24  1  0
  8 25  1  0
 10 26  1  0
 11 27  1  0
 12 28  1  0
 13 29  1  0
 14 30  1  0
 16 31  1  0
 17 32  1  0
 19 33  1  0
 20 34  1  0
 35 36  2  0
 36 37  1  0
 37 38  2  0
 38 39  1  0
 39 40  1  0
 39 41  2  0
 41 35  1  0
 36 42  1  0
 37 43  1  0
 40 44  1  0
 40 45  1  0
 18 35  1  0
M  END
>  <attachment_point>  (306) 
32

>  <score>  (306) 
<NA>

$$$$
4djw
     RDKit          3D

 52 56  0  0  0  0  0  0  0  0999 V2000
   22.4950   11.8750   22.5810 C   0  0  0  0  0  0  0  0  0  0  0  0
   22.5380    9.4930   22.4640 N   0  0  0  0  0  0  0  0  0  0  0  0
   22.3600   13.0630   22.3480 O   0  0  0  0  0  0  0  0  0  0  0  0
   22.3390   10.6680   21.5610 C   0  0  0  0  0  0  0  0  0  0  0  0
   22.7860   11.3350   23.8120 N   0  0  0  0  0  0  0  0  0  0  0  0
   22.7800    9.9140   23.7010 C   0  0  0  0  0  0  0  0  0  0  0  0
   22.9970    9.1110   24.7490 N   0  0  0  0  0  0  0  0  0  0  0  0
   23.0220   12.1410   25.0180 C   0  0  0  0  0  0  0  0  0  0  0  0
   20.9020   10.6270   21.0050 C   0  0  0  0  0  0  0  0  0  0  0  0
   20.2720    9.4140   20.7470 C   0  0  0  0  0  0  0  0  0  0  0  0
   18.9690    9.3760   20.2600 C   0  0  0  0  0  0  0  0  0  0  0  0
   18.2800   10.5440   20.0210 C   0  0  0  0  0  0  0  0  0  0  0  0
   18.8920   11.7530   20.2590 C   0  0  0  0  0  0  0  0  0  0  0  0
   20.1950   11.7970   20.7440 C   0  0  0  0  0  0  0  0  0  0  0  0
   23.4880   10.6920   20.5300 C   0  0  0  0  0  0  0  0  0  0  0  0
   23.2110   10.7890   19.1730 C   0  0  0  0  0  0  0  0  0  0  0  0
   24.2350   10.8650   18.2430 C   0  0  0  0  0  0  0  0  0  0  0  0
   25.5500   10.8410   18.6560 C   0  0  0  0  0  0  0  0  0  0  0  0
   25.8710   10.7460   20.0070 C   0  0  0  0  0  0  0  0  0  0  0  0
   24.8260   10.6610   20.9430 C   0  0  0  0  0  0  0  0  0  0  0  0
    0.0000    0.0000    0.0000 H   0  0  0  0  0  0  0  0  0  0  0  0
    0.0000    0.0000    0.0000 H   0  0  0  0  0  0  0  0  0  0  0  0
    0.0000    0.0000    0.0000 H   0  0  0  0  0  0  0  0  0  0  0  0
    0.0000    0.0000    0.0000 H   0  0  0  0  0  0  0  0  0  0  0  0
    0.0000    0.0000    0.0000 H   0  0  0  0  0  0  0  0  0  0  0  0
    0.0000    0.0000    0.0000 H   0  0  0  0  0  0  0  0  0  0  0  0
    0.0000    0.0000    0.0000 H   0  0  0  0  0  0  0  0  0  0  0  0
    0.0000    0.0000    0.0000 H   0  0  0  0  0  0  0  0  0  0  0  0
    0.0000    0.0000    0.0000 H   0  0  0  0  0  0  0  0  0  0  0  0
    0.0000    0.0000    0.0000 H   0  0  0  0  0  0  0  0  0  0  0  0
    0.0000    0.0000    0.0000 H   0  0  0  0  0  0  0  0  0  0  0  0
    0.0000    0.0000    0.0000 H   0  0  0  0  0  0  0  0  0  0  0  0
    0.0000    0.0000    0.0000 H   0  0  0  0  0  0  0  0  0  0  0  0
    0.0000    0.0000    0.0000 H   0  0  0  0  0  0  0  0  0  0  0  0
   12.4019    5.2622    9.0555 C   0  0  0  0  0  0  0  0  0  0  0  0
   12.4097    4.1078    8.4032 N   0  0  0  0  0  0  0  0  0  0  0  0
   11.2135    3.9916    7.7521 C   0  0  0  0  0  0  0  0  0  0  0  0
   10.6641    3.0294    6.9365 C   0  0  0  0  0  0  0  0  0  0  0  0
    9.4020    3.1677    6.3979 C   0  0  0  0  0  0  0  0  0  0  0  0
    8.8058    2.1589    5.5330 C   0  0  0  0  0  0  0  0  0  0  0  0
    7.5103    2.2941    4.9763 N   0  0  0  0  0  0  0  0  0  0  0  0
    9.4690    1.1208    5.2672 O   0  0  0  0  0  0  0  0  0  0  0  0
    8.7033    4.3152    6.7083 C   0  0  0  0  0  0  0  0  0  0  0  0
    9.2590    5.2951    7.5372 C   0  0  0  0  0  0  0  0  0  0  0  0
   10.5171    5.1358    8.0618 C   0  0  0  0  0  0  0  0  0  0  0  0
   11.2737    5.9222    8.8788 N   0  0  0  0  0  0  0  0  0  0  0  0
   11.2302    2.1526    6.7152 H   0  0  0  0  0  0  0  0  0  0  0  0
    6.9632    1.4369    4.7200 H   0  0  0  0  0  0  0  0  0  0  0  0
    7.0781    3.2432    4.8116 H   0  0  0  0  0  0  0  0  0  0  0  0
    7.6995    4.4922    6.3181 H   0  0  0  0  0  0  0  0  0  0  0  0
    8.7181    6.2010    7.7874 H   0  0  0  0  0  0  0  0  0  0  0  0
   11.0300    6.8509    9.2875 H   0  0  0  0  0  0  0  0  0  0  0  0
  1  3  2  0
  1  4  1  0
  1  5  1  0
  2  4  1  0
  2  6  1  0
  4  9  1  0
  4 15  1  0
  5  6  1  0
  5  8  1  0
  6  7  2  3
  9 10  2  0
  9 14  1  0
 10 11  1  0
 11 12  2  0
 12 13  1  0
 13 14  2  0
 15 16  2  0
 15 20  1  0
 16 17  1  0
 17 18  2  0
 18 19  1  0
 19 20  2  0
  2 21  1  0
  7 22  1  0
  8 23  1  0
  8 24  1  0
  8 25  1  0
 10 26  1  0
 11 27  1  0
 12 28  1  0
 13 29  1  0
 14 30  1  0
 16 31  1  0
 17 32  1  0
 19 33  1  0
 20 34  1  0
 35 36  2  0
 36 37  1  0
 37 38  2  0
 38 39  1  0
 39 40  1  0
 40 41  1  0
 40 42  2  0
 39 43  2  0
 43 44  1  0
 44 45  2  0
 45 46  1  0
 46 35  1  0
 45 37  1  0
 38 47  1  0
 41 48  1  0
 41 49  1  0
 43 50  1  0
 44 51  1  0
 46 52  1  0
 18 35  1  0
M  END
>  <attachment_point>  (307) 
32

>  <score>  (307) 
<NA>

$$$$
4djw
     RDKit          3D

 45 48  0  0  0  0  0  0  0  0999 V2000
   22.4950   11.8750   22.5810 C   0  0  0  0  0  0  0  0  0  0  0  0
   22.5380    9.4930   22.4640 N   0  0  0  0  0  0  0  0  0  0  0  0
   22.3600   13.0630   22.3480 O   0  0  0  0  0  0  0  0  0  0  0  0
   22.3390   10.6680   21.5610 C   0  0  0  0  0  0  0  0  0  0  0  0
   22.7860   11.3350   23.8120 N   0  0  0  0  0  0  0  0  0  0  0  0
   22.7800    9.9140   23.7010 C   0  0  0  0  0  0  0  0  0  0  0  0
   22.9970    9.1110   24.7490 N   0  0  0  0  0  0  0  0  0  0  0  0
   23.0220   12.1410   25.0180 C   0  0  0  0  0  0  0  0  0  0  0  0
   20.9020   10.6270   21.0050 C   0  0  0  0  0  0  0  0  0  0  0  0
   20.2720    9.4140   20.7470 C   0  0  0  0  0  0  0  0  0  0  0  0
   18.9690    9.3760   20.2600 C   0  0  0  0  0  0  0  0  0  0  0  0
   18.2800   10.5440   20.0210 C   0  0  0  0  0  0  0  0  0  0  0  0
   18.8920   11.7530   20.2590 C   0  0  0  0  0  0  0  0  0  0  0  0
   20.1950   11.7970   20.7440 C   0  0  0  0  0  0  0  0  0  0  0  0
   23.4880   10.6920   20.5300 C   0  0  0  0  0  0  0  0  0  0  0  0
   23.2110   10.7890   19.1730 C   0  0  0  0  0  0  0  0  0  0  0  0
   24.2350   10.8650   18.2430 C   0  0  0  0  0  0  0  0  0  0  0  0
   25.5500   10.8410   18.6560 C   0  0  0  0  0  0  0  0  0  0  0  0
   25.8710   10.7460   20.0070 C   0  0  0  0  0  0  0  0  0  0  0  0
   24.8260   10.6610   20.9430 C   0  0  0  0  0  0  0  0  0  0  0  0
    0.0000    0.0000    0.0000 H   0  0  0  0  0  0  0  0  0  0  0  0
    0.0000    0.0000    0.0000 H   0  0  0  0  0  0  0  0  0  0  0  0
    0.0000    0.0000    0.0000 H   0  0  0  0  0  0  0  0  0  0  0  0
    0.0000    0.0000    0.0000 H   0  0  0  0  0  0  0  0  0  0  0  0
    0.0000    0.0000    0.0000 H   0  0  0  0  0  0  0  0  0  0  0  0
    0.0000    0.0000    0.0000 H   0  0  0  0  0  0  0  0  0  0  0  0
    0.0000    0.0000    0.0000 H   0  0  0  0  0  0  0  0  0  0  0  0
    0.0000    0.0000    0.0000 H   0  0  0  0  0  0  0  0  0  0  0  0
    0.0000    0.0000    0.0000 H   0  0  0  0  0  0  0  0  0  0  0  0
    0.0000    0.0000    0.0000 H   0  0  0  0  0  0  0  0  0  0  0  0
    0.0000    0.0000    0.0000 H   0  0  0  0  0  0  0  0  0  0  0  0
    0.0000    0.0000    0.0000 H   0  0  0  0  0  0  0  0  0  0  0  0
    0.0000    0.0000    0.0000 H   0  0  0  0  0  0  0  0  0  0  0  0
    0.0000    0.0000    0.0000 H   0  0  0  0  0  0  0  0  0  0  0  0
   12.3961    5.2597    9.0513 C   0  0  0  0  0  0  0  0  0  0  0  0
   12.3305    5.5741    7.7787 N   0  0  0  0  0  0  0  0  0  0  0  0
   11.1925    4.9997    7.2756 C   0  0  0  0  0  0  0  0  0  0  0  0
   10.6233    4.3447    8.3397 C   0  0  0  0  0  0  0  0  0  0  0  0
   11.4016    4.5209    9.4590 N   0  0  0  0  0  0  0  0  0  0  0  0
   11.1305    3.9765   10.7981 C   0  0  0  0  0  0  0  0  0  0  0  0
   10.8711    5.0773    6.2753 H   0  0  0  0  0  0  0  0  0  0  0  0
    9.7138    3.7601    8.3866 H   0  0  0  0  0  0  0  0  0  0  0  0
   10.0273    3.8494   10.9225 H   0  0  0  0  0  0  0  0  0  0  0  0
   11.7038    3.0626   10.9132 H   0  0  0  0  0  0  0  0  0  0  0  0
   11.4434    4.6859   11.5912 H   0  0  0  0  0  0  0  0  0  0  0  0
  1  3  2  0
  1  4  1  0
  1  5  1  0
  2  4  1  0
  2  6  1  0
  4  9  1  0
  4 15  1  0
  5  6  1  0
  5  8  1  0
  6  7  2  3
  9 10  2  0
  9 14  1  0
 10 11  1  0
 11 12  2  0
 12 13  1  0
 13 14  2  0
 15 16  2  0
 15 20  1  0
 16 17  1  0
 17 18  2  0
 18 19  1  0
 19 20  2  0
  2 21  1  0
  7 22  1  0
  8 23  1  0
  8 24  1  0
  8 25  1  0
 10 26  1  0
 11 27  1  0
 12 28  1  0
 13 29  1  0
 14 30  1  0
 16 31  1  0
 17 32  1  0
 19 33  1  0
 20 34  1  0
 35 36  2  0
 36 37  1  0
 37 38  2  0
 38 39  1  0
 39 40  1  0
 39 35  1  0
 37 41  1  0
 38 42  1  0
 40 43  1  0
 40 44  1  0
 40 45  1  0
 18 35  1  0
M  END
>  <attachment_point>  (308) 
32

>  <score>  (308) 
<NA>

$$$$
4djw
     RDKit          3D

 49 51  0  0  0  0  0  0  0  0999 V2000
   22.4950   11.8750   22.5810 C   0  0  0  0  0  0  0  0  0  0  0  0
   22.5380    9.4930   22.4640 N   0  0  0  0  0  0  0  0  0  0  0  0
   22.3600   13.0630   22.3480 O   0  0  0  0  0  0  0  0  0  0  0  0
   22.3390   10.6680   21.5610 C   0  0  0  0  0  0  0  0  0  0  0  0
   22.7860   11.3350   23.8120 N   0  0  0  0  0  0  0  0  0  0  0  0
   22.7800    9.9140   23.7010 C   0  0  0  0  0  0  0  0  0  0  0  0
   22.9970    9.1110   24.7490 N   0  0  0  0  0  0  0  0  0  0  0  0
   23.0220   12.1410   25.0180 C   0  0  0  0  0  0  0  0  0  0  0  0
   20.9020   10.6270   21.0050 C   0  0  0  0  0  0  0  0  0  0  0  0
   20.2720    9.4140   20.7470 C   0  0  0  0  0  0  0  0  0  0  0  0
   18.9690    9.3760   20.2600 C   0  0  0  0  0  0  0  0  0  0  0  0
   18.2800   10.5440   20.0210 C   0  0  0  0  0  0  0  0  0  0  0  0
   18.8920   11.7530   20.2590 C   0  0  0  0  0  0  0  0  0  0  0  0
   20.1950   11.7970   20.7440 C   0  0  0  0  0  0  0  0  0  0  0  0
   23.4880   10.6920   20.5300 C   0  0  0  0  0  0  0  0  0  0  0  0
   23.2110   10.7890   19.1730 C   0  0  0  0  0  0  0  0  0  0  0  0
   24.2350   10.8650   18.2430 C   0  0  0  0  0  0  0  0  0  0  0  0
   25.5500   10.8410   18.6560 C   0  0  0  0  0  0  0  0  0  0  0  0
   25.8710   10.7460   20.0070 C   0  0  0  0  0  0  0  0  0  0  0  0
   24.8260   10.6610   20.9430 C   0  0  0  0  0  0  0  0  0  0  0  0
    0.0000    0.0000    0.0000 H   0  0  0  0  0  0  0  0  0  0  0  0
    0.0000    0.0000    0.0000 H   0  0  0  0  0  0  0  0  0  0  0  0
    0.0000    0.0000    0.0000 H   0  0  0  0  0  0  0  0  0  0  0  0
    0.0000    0.0000    0.0000 H   0  0  0  0  0  0  0  0  0  0  0  0
    0.0000    0.0000    0.0000 H   0  0  0  0  0  0  0  0  0  0  0  0
    0.0000    0.0000    0.0000 H   0  0  0  0  0  0  0  0  0  0  0  0
    0.0000    0.0000    0.0000 H   0  0  0  0  0  0  0  0  0  0  0  0
    0.0000    0.0000    0.0000 H   0  0  0  0  0  0  0  0  0  0  0  0
    0.0000    0.0000    0.0000 H   0  0  0  0  0  0  0  0  0  0  0  0
    0.0000    0.0000    0.0000 H   0  0  0  0  0  0  0  0  0  0  0  0
    0.0000    0.0000    0.0000 H   0  0  0  0  0  0  0  0  0  0  0  0
    0.0000    0.0000    0.0000 H   0  0  0  0  0  0  0  0  0  0  0  0
    0.0000    0.0000    0.0000 H   0  0  0  0  0  0  0  0  0  0  0  0
    0.0000    0.0000    0.0000 H   0  0  0  0  0  0  0  0  0  0  0  0
   12.3715    5.2493    9.0334 N   0  0  0  0  0  0  0  0  0  0  0  0
   11.5401    5.1123   10.2373 C   0  0  0  0  0  0  0  0  0  0  0  0
   12.2386    4.1186   11.1588 C   0  0  0  0  0  0  0  0  0  0  0  0
   10.2174    4.6060    9.8110 C   0  0  0  0  0  0  0  0  0  0  0  0
   11.3822    6.4578   10.9159 C   0  0  0  0  0  0  0  0  0  0  0  0
   12.2906    6.1981    8.6154 H   0  0  0  0  0  0  0  0  0  0  0  0
   12.9046    4.7358   11.8092 H   0  0  0  0  0  0  0  0  0  0  0  0
   12.8786    3.4260   10.5885 H   0  0  0  0  0  0  0  0  0  0  0  0
   11.4923    3.6221   11.7992 H   0  0  0  0  0  0  0  0  0  0  0  0
    9.4769    4.7916   10.6450 H   0  0  0  0  0  0  0  0  0  0  0  0
   10.2073    3.4868    9.6941 H   0  0  0  0  0  0  0  0  0  0  0  0
    9.8383    5.0871    8.9091 H   0  0  0  0  0  0  0  0  0  0  0  0
   10.4143    6.9355   10.6485 H   0  0  0  0  0  0  0  0  0  0  0  0
   12.2605    7.0736   10.6039 H   0  0  0  0  0  0  0  0  0  0  0  0
   11.4648    6.3002   12.0195 H   0  0  0  0  0  0  0  0  0  0  0  0
  1  3  2  0
  1  4  1  0
  1  5  1  0
  2  4  1  0
  2  6  1  0
  4  9  1  0
  4 15  1  0
  5  6  1  0
  5  8  1  0
  6  7  2  3
  9 10  2  0
  9 14  1  0
 10 11  1  0
 11 12  2  0
 12 13  1  0
 13 14  2  0
 15 16  2  0
 15 20  1  0
 16 17  1  0
 17 18  2  0
 18 19  1  0
 19 20  2  0
  2 21  1  0
  7 22  1  0
  8 23  1  0
  8 24  1  0
  8 25  1  0
 10 26  1  0
 11 27  1  0
 12 28  1  0
 13 29  1  0
 14 30  1  0
 16 31  1  0
 17 32  1  0
 19 33  1  0
 20 34  1  0
 35 36  1  0
 36 37  1  0
 36 38  1  0
 36 39  1  0
 35 40  1  0
 37 41  1  0
 37 42  1  0
 37 43  1  0
 38 44  1  0
 38 45  1  0
 38 46  1  0
 39 47  1  0
 39 48  1  0
 39 49  1  0
 18 35  1  0
M  END
>  <attachment_point>  (309) 
32

>  <score>  (309) 
<NA>

$$$$
4djw
     RDKit          3D

 49 52  0  0  0  0  0  0  0  0999 V2000
   22.4950   11.8750   22.5810 C   0  0  0  0  0  0  0  0  0  0  0  0
   22.5380    9.4930   22.4640 N   0  0  0  0  0  0  0  0  0  0  0  0
   22.3600   13.0630   22.3480 O   0  0  0  0  0  0  0  0  0  0  0  0
   22.3390   10.6680   21.5610 C   0  0  0  0  0  0  0  0  0  0  0  0
   22.7860   11.3350   23.8120 N   0  0  0  0  0  0  0  0  0  0  0  0
   22.7800    9.9140   23.7010 C   0  0  0  0  0  0  0  0  0  0  0  0
   22.9970    9.1110   24.7490 N   0  0  0  0  0  0  0  0  0  0  0  0
   23.0220   12.1410   25.0180 C   0  0  0  0  0  0  0  0  0  0  0  0
   20.9020   10.6270   21.0050 C   0  0  0  0  0  0  0  0  0  0  0  0
   20.2720    9.4140   20.7470 C   0  0  0  0  0  0  0  0  0  0  0  0
   18.9690    9.3760   20.2600 C   0  0  0  0  0  0  0  0  0  0  0  0
   18.2800   10.5440   20.0210 C   0  0  0  0  0  0  0  0  0  0  0  0
   18.8920   11.7530   20.2590 C   0  0  0  0  0  0  0  0  0  0  0  0
   20.1950   11.7970   20.7440 C   0  0  0  0  0  0  0  0  0  0  0  0
   23.4880   10.6920   20.5300 C   0  0  0  0  0  0  0  0  0  0  0  0
   23.2110   10.7890   19.1730 C   0  0  0  0  0  0  0  0  0  0  0  0
   24.2350   10.8650   18.2430 C   0  0  0  0  0  0  0  0  0  0  0  0
   25.5500   10.8410   18.6560 C   0  0  0  0  0  0  0  0  0  0  0  0
   25.8710   10.7460   20.0070 C   0  0  0  0  0  0  0  0  0  0  0  0
   24.8260   10.6610   20.9430 C   0  0  0  0  0  0  0  0  0  0  0  0
    0.0000    0.0000    0.0000 H   0  0  0  0  0  0  0  0  0  0  0  0
    0.0000    0.0000    0.0000 H   0  0  0  0  0  0  0  0  0  0  0  0
    0.0000    0.0000    0.0000 H   0  0  0  0  0  0  0  0  0  0  0  0
    0.0000    0.0000    0.0000 H   0  0  0  0  0  0  0  0  0  0  0  0
    0.0000    0.0000    0.0000 H   0  0  0  0  0  0  0  0  0  0  0  0
    0.0000    0.0000    0.0000 H   0  0  0  0  0  0  0  0  0  0  0  0
    0.0000    0.0000    0.0000 H   0  0  0  0  0  0  0  0  0  0  0  0
    0.0000    0.0000    0.0000 H   0  0  0  0  0  0  0  0  0  0  0  0
    0.0000    0.0000    0.0000 H   0  0  0  0  0  0  0  0  0  0  0  0
    0.0000    0.0000    0.0000 H   0  0  0  0  0  0  0  0  0  0  0  0
    0.0000    0.0000    0.0000 H   0  0  0  0  0  0  0  0  0  0  0  0
    0.0000    0.0000    0.0000 H   0  0  0  0  0  0  0  0  0  0  0  0
    0.0000    0.0000    0.0000 H   0  0  0  0  0  0  0  0  0  0  0  0
    0.0000    0.0000    0.0000 H   0  0  0  0  0  0  0  0  0  0  0  0
   12.4376    5.2773    9.0816 C   0  0  0  0  0  0  0  0  0  0  0  0
   12.6198    4.7024    7.9807 O   0  0  0  0  0  0  0  0  0  0  0  0
   11.0940    5.4546    9.5146 N   0  0  0  0  0  0  0  0  0  0  0  0
    9.9790    5.0076    8.7498 C   0  0  0  0  0  0  0  0  0  0  0  0
    9.5012    3.7122    8.9682 C   0  0  0  0  0  0  0  0  0  0  0  0
    8.4280    3.2095    8.2679 C   0  0  0  0  0  0  0  0  0  0  0  0
    7.8035    3.9885    7.3301 C   0  0  0  0  0  0  0  0  0  0  0  0
    6.7300    3.5104    6.6172 F   0  0  0  0  0  0  0  0  0  0  0  0
    8.2610    5.2679    7.1015 C   0  0  0  0  0  0  0  0  0  0  0  0
    9.3373    5.7563    7.8118 C   0  0  0  0  0  0  0  0  0  0  0  0
   10.9640    5.9396   10.4418 H   0  0  0  0  0  0  0  0  0  0  0  0
    9.9825    3.0905    9.7018 H   0  0  0  0  0  0  0  0  0  0  0  0
    8.0474    2.1975    8.4321 H   0  0  0  0  0  0  0  0  0  0  0  0
    7.7670    5.8990    6.3523 H   0  0  0  0  0  0  0  0  0  0  0  0
    9.7170    6.7744    7.6437 H   0  0  0  0  0  0  0  0  0  0  0  0
  1  3  2  0
  1  4  1  0
  1  5  1  0
  2  4  1  0
  2  6  1  0
  4  9  1  0
  4 15  1  0
  5  6  1  0
  5  8  1  0
  6  7  2  3
  9 10  2  0
  9 14  1  0
 10 11  1  0
 11 12  2  0
 12 13  1  0
 13 14  2  0
 15 16  2  0
 15 20  1  0
 16 17  1  0
 17 18  2  0
 18 19  1  0
 19 20  2  0
  2 21  1  0
  7 22  1  0
  8 23  1  0
  8 24  1  0
  8 25  1  0
 10 26  1  0
 11 27  1  0
 12 28  1  0
 13 29  1  0
 14 30  1  0
 16 31  1  0
 17 32  1  0
 19 33  1  0
 20 34  1  0
 35 36  2  0
 35 37  1  0
 37 38  1  0
 38 39  2  0
 39 40  1  0
 40 41  2  0
 41 42  1  0
 41 43  1  0
 43 44  2  0
 44 38  1  0
 37 45  1  0
 39 46  1  0
 40 47  1  0
 43 48  1  0
 44 49  1  0
 18 35  1  0
M  END
>  <attachment_point>  (310) 
32

>  <score>  (310) 
<NA>

$$$$
4djw
     RDKit          3D

 41 44  0  0  0  0  0  0  0  0999 V2000
   22.4950   11.8750   22.5810 C   0  0  0  0  0  0  0  0  0  0  0  0
   22.5380    9.4930   22.4640 N   0  0  0  0  0  0  0  0  0  0  0  0
   22.3600   13.0630   22.3480 O   0  0  0  0  0  0  0  0  0  0  0  0
   22.3390   10.6680   21.5610 C   0  0  0  0  0  0  0  0  0  0  0  0
   22.7860   11.3350   23.8120 N   0  0  0  0  0  0  0  0  0  0  0  0
   22.7800    9.9140   23.7010 C   0  0  0  0  0  0  0  0  0  0  0  0
   22.9970    9.1110   24.7490 N   0  0  0  0  0  0  0  0  0  0  0  0
   23.0220   12.1410   25.0180 C   0  0  0  0  0  0  0  0  0  0  0  0
   20.9020   10.6270   21.0050 C   0  0  0  0  0  0  0  0  0  0  0  0
   20.2720    9.4140   20.7470 C   0  0  0  0  0  0  0  0  0  0  0  0
   18.9690    9.3760   20.2600 C   0  0  0  0  0  0  0  0  0  0  0  0
   18.2800   10.5440   20.0210 C   0  0  0  0  0  0  0  0  0  0  0  0
   18.8920   11.7530   20.2590 C   0  0  0  0  0  0  0  0  0  0  0  0
   20.1950   11.7970   20.7440 C   0  0  0  0  0  0  0  0  0  0  0  0
   23.4880   10.6920   20.5300 C   0  0  0  0  0  0  0  0  0  0  0  0
   23.2110   10.7890   19.1730 C   0  0  0  0  0  0  0  0  0  0  0  0
   24.2350   10.8650   18.2430 C   0  0  0  0  0  0  0  0  0  0  0  0
   25.5500   10.8410   18.6560 C   0  0  0  0  0  0  0  0  0  0  0  0
   25.8710   10.7460   20.0070 C   0  0  0  0  0  0  0  0  0  0  0  0
   24.8260   10.6610   20.9430 C   0  0  0  0  0  0  0  0  0  0  0  0
    0.0000    0.0000    0.0000 H   0  0  0  0  0  0  0  0  0  0  0  0
    0.0000    0.0000    0.0000 H   0  0  0  0  0  0  0  0  0  0  0  0
    0.0000    0.0000    0.0000 H   0  0  0  0  0  0  0  0  0  0  0  0
    0.0000    0.0000    0.0000 H   0  0  0  0  0  0  0  0  0  0  0  0
    0.0000    0.0000    0.0000 H   0  0  0  0  0  0  0  0  0  0  0  0
    0.0000    0.0000    0.0000 H   0  0  0  0  0  0  0  0  0  0  0  0
    0.0000    0.0000    0.0000 H   0  0  0  0  0  0  0  0  0  0  0  0
    0.0000    0.0000    0.0000 H   0  0  0  0  0  0  0  0  0  0  0  0
    0.0000    0.0000    0.0000 H   0  0  0  0  0  0  0  0  0  0  0  0
    0.0000    0.0000    0.0000 H   0  0  0  0  0  0  0  0  0  0  0  0
    0.0000    0.0000    0.0000 H   0  0  0  0  0  0  0  0  0  0  0  0
    0.0000    0.0000    0.0000 H   0  0  0  0  0  0  0  0  0  0  0  0
    0.0000    0.0000    0.0000 H   0  0  0  0  0  0  0  0  0  0  0  0
    0.0000    0.0000    0.0000 H   0  0  0  0  0  0  0  0  0  0  0  0
   12.3967    5.2600    9.0518 C   0  0  0  0  0  0  0  0  0  0  0  0
   11.3450    6.0364    8.6992 C   0  0  0  0  0  0  0  0  0  0  0  0
   10.5575    5.2172    7.9596 N   0  0  0  0  0  0  0  0  0  0  0  0
   11.1602    4.0178    7.9053 C   0  0  0  0  0  0  0  0  0  0  0  0
   12.3067    4.0683    8.5943 O   0  0  0  0  0  0  0  0  0  0  0  0
   11.1851    7.0731    8.9577 H   0  0  0  0  0  0  0  0  0  0  0  0
   10.8316    3.1101    7.4044 H   0  0  0  0  0  0  0  0  0  0  0  0
  1  3  2  0
  1  4  1  0
  1  5  1  0
  2  4  1  0
  2  6  1  0
  4  9  1  0
  4 15  1  0
  5  6  1  0
  5  8  1  0
  6  7  2  3
  9 10  2  0
  9 14  1  0
 10 11  1  0
 11 12  2  0
 12 13  1  0
 13 14  2  0
 15 16  2  0
 15 20  1  0
 16 17  1  0
 17 18  2  0
 18 19  1  0
 19 20  2  0
  2 21  1  0
  7 22  1  0
  8 23  1  0
  8 24  1  0
  8 25  1  0
 10 26  1  0
 11 27  1  0
 12 28  1  0
 13 29  1  0
 14 30  1  0
 16 31  1  0
 17 32  1  0
 19 33  1  0
 20 34  1  0
 35 36  2  0
 36 37  1  0
 37 38  2  0
 38 39  1  0
 39 35  1  0
 36 40  1  0
 38 41  1  0
 18 35  1  0
M  END
>  <attachment_point>  (311) 
32

>  <score>  (311) 
<NA>

$$$$
4djw
     RDKit          3D

 48 51  0  0  0  0  0  0  0  0999 V2000
   22.4950   11.8750   22.5810 C   0  0  0  0  0  0  0  0  0  0  0  0
   22.5380    9.4930   22.4640 N   0  0  0  0  0  0  0  0  0  0  0  0
   22.3600   13.0630   22.3480 O   0  0  0  0  0  0  0  0  0  0  0  0
   22.3390   10.6680   21.5610 C   0  0  0  0  0  0  0  0  0  0  0  0
   22.7860   11.3350   23.8120 N   0  0  0  0  0  0  0  0  0  0  0  0
   22.7800    9.9140   23.7010 C   0  0  0  0  0  0  0  0  0  0  0  0
   22.9970    9.1110   24.7490 N   0  0  0  0  0  0  0  0  0  0  0  0
   23.0220   12.1410   25.0180 C   0  0  0  0  0  0  0  0  0  0  0  0
   20.9020   10.6270   21.0050 C   0  0  0  0  0  0  0  0  0  0  0  0
   20.2720    9.4140   20.7470 C   0  0  0  0  0  0  0  0  0  0  0  0
   18.9690    9.3760   20.2600 C   0  0  0  0  0  0  0  0  0  0  0  0
   18.2800   10.5440   20.0210 C   0  0  0  0  0  0  0  0  0  0  0  0
   18.8920   11.7530   20.2590 C   0  0  0  0  0  0  0  0  0  0  0  0
   20.1950   11.7970   20.7440 C   0  0  0  0  0  0  0  0  0  0  0  0
   23.4880   10.6920   20.5300 C   0  0  0  0  0  0  0  0  0  0  0  0
   23.2110   10.7890   19.1730 C   0  0  0  0  0  0  0  0  0  0  0  0
   24.2350   10.8650   18.2430 C   0  0  0  0  0  0  0  0  0  0  0  0
   25.5500   10.8410   18.6560 C   0  0  0  0  0  0  0  0  0  0  0  0
   25.8710   10.7460   20.0070 C   0  0  0  0  0  0  0  0  0  0  0  0
   24.8260   10.6610   20.9430 C   0  0  0  0  0  0  0  0  0  0  0  0
    0.0000    0.0000    0.0000 H   0  0  0  0  0  0  0  0  0  0  0  0
    0.0000    0.0000    0.0000 H   0  0  0  0  0  0  0  0  0  0  0  0
    0.0000    0.0000    0.0000 H   0  0  0  0  0  0  0  0  0  0  0  0
    0.0000    0.0000    0.0000 H   0  0  0  0  0  0  0  0  0  0  0  0
    0.0000    0.0000    0.0000 H   0  0  0  0  0  0  0  0  0  0  0  0
    0.0000    0.0000    0.0000 H   0  0  0  0  0  0  0  0  0  0  0  0
    0.0000    0.0000    0.0000 H   0  0  0  0  0  0  0  0  0  0  0  0
    0.0000    0.0000    0.0000 H   0  0  0  0  0  0  0  0  0  0  0  0
    0.0000    0.0000    0.0000 H   0  0  0  0  0  0  0  0  0  0  0  0
    0.0000    0.0000    0.0000 H   0  0  0  0  0  0  0  0  0  0  0  0
    0.0000    0.0000    0.0000 H   0  0  0  0  0  0  0  0  0  0  0  0
    0.0000    0.0000    0.0000 H   0  0  0  0  0  0  0  0  0  0  0  0
    0.0000    0.0000    0.0000 H   0  0  0  0  0  0  0  0  0  0  0  0
    0.0000    0.0000    0.0000 H   0  0  0  0  0  0  0  0  0  0  0  0
   12.3964    5.2598    9.0515 O   0  0  0  0  0  0  0  0  0  0  0  0
   12.6343    6.1096    7.9554 C   0  0  0  0  0  0  0  0  0  0  0  0
   13.9660    5.8826    7.3753 C   0  0  0  0  0  0  0  0  0  0  0  0
   15.0131    6.6268    7.8815 C   0  0  0  0  0  0  0  0  0  0  0  0
   16.2777    6.4230    7.3430 C   0  0  0  0  0  0  0  0  0  0  0  0
   16.4652    5.4991    6.3312 C   0  0  0  0  0  0  0  0  0  0  0  0
   15.4305    4.7878    5.8563 N   0  0  0  0  0  0  0  0  0  0  0  0
   14.1925    4.9590    6.3539 C   0  0  0  0  0  0  0  0  0  0  0  0
   11.8069    5.9394    7.2718 H   0  0  0  0  0  0  0  0  0  0  0  0
   12.5592    7.1845    8.2816 H   0  0  0  0  0  0  0  0  0  0  0  0
   14.8696    7.3626    8.6858 H   0  0  0  0  0  0  0  0  0  0  0  0
   17.0986    6.9919    7.7245 H   0  0  0  0  0  0  0  0  0  0  0  0
   17.4811    5.3765    5.9414 H   0  0  0  0  0  0  0  0  0  0  0  0
   13.3295    4.4122    6.0062 H   0  0  0  0  0  0  0  0  0  0  0  0
  1  3  2  0
  1  4  1  0
  1  5  1  0
  2  4  1  0
  2  6  1  0
  4  9  1  0
  4 15  1  0
  5  6  1  0
  5  8  1  0
  6  7  2  3
  9 10  2  0
  9 14  1  0
 10 11  1  0
 11 12  2  0
 12 13  1  0
 13 14  2  0
 15 16  2  0
 15 20  1  0
 16 17  1  0
 17 18  2  0
 18 19  1  0
 19 20  2  0
  2 21  1  0
  7 22  1  0
  8 23  1  0
  8 24  1  0
  8 25  1  0
 10 26  1  0
 11 27  1  0
 12 28  1  0
 13 29  1  0
 14 30  1  0
 16 31  1  0
 17 32  1  0
 19 33  1  0
 20 34  1  0
 35 36  1  0
 36 37  1  0
 37 38  2  0
 38 39  1  0
 39 40  2  0
 40 41  1  0
 41 42  2  0
 42 37  1  0
 36 43  1  0
 36 44  1  0
 38 45  1  0
 39 46  1  0
 40 47  1  0
 42 48  1  0
 18 35  1  0
M  END
>  <attachment_point>  (312) 
32

>  <score>  (312) 
<NA>

$$$$
4djw
     RDKit          3D

 45 47  0  0  0  0  0  0  0  0999 V2000
   22.4950   11.8750   22.5810 C   0  0  0  0  0  0  0  0  0  0  0  0
   22.5380    9.4930   22.4640 N   0  0  0  0  0  0  0  0  0  0  0  0
   22.3600   13.0630   22.3480 O   0  0  0  0  0  0  0  0  0  0  0  0
   22.3390   10.6680   21.5610 C   0  0  0  0  0  0  0  0  0  0  0  0
   22.7860   11.3350   23.8120 N   0  0  0  0  0  0  0  0  0  0  0  0
   22.7800    9.9140   23.7010 C   0  0  0  0  0  0  0  0  0  0  0  0
   22.9970    9.1110   24.7490 N   0  0  0  0  0  0  0  0  0  0  0  0
   23.0220   12.1410   25.0180 C   0  0  0  0  0  0  0  0  0  0  0  0
   20.9020   10.6270   21.0050 C   0  0  0  0  0  0  0  0  0  0  0  0
   20.2720    9.4140   20.7470 C   0  0  0  0  0  0  0  0  0  0  0  0
   18.9690    9.3760   20.2600 C   0  0  0  0  0  0  0  0  0  0  0  0
   18.2800   10.5440   20.0210 C   0  0  0  0  0  0  0  0  0  0  0  0
   18.8920   11.7530   20.2590 C   0  0  0  0  0  0  0  0  0  0  0  0
   20.1950   11.7970   20.7440 C   0  0  0  0  0  0  0  0  0  0  0  0
   23.4880   10.6920   20.5300 C   0  0  0  0  0  0  0  0  0  0  0  0
   23.2110   10.7890   19.1730 C   0  0  0  0  0  0  0  0  0  0  0  0
   24.2350   10.8650   18.2430 C   0  0  0  0  0  0  0  0  0  0  0  0
   25.5500   10.8410   18.6560 C   0  0  0  0  0  0  0  0  0  0  0  0
   25.8710   10.7460   20.0070 C   0  0  0  0  0  0  0  0  0  0  0  0
   24.8260   10.6610   20.9430 C   0  0  0  0  0  0  0  0  0  0  0  0
    0.0000    0.0000    0.0000 H   0  0  0  0  0  0  0  0  0  0  0  0
    0.0000    0.0000    0.0000 H   0  0  0  0  0  0  0  0  0  0  0  0
    0.0000    0.0000    0.0000 H   0  0  0  0  0  0  0  0  0  0  0  0
    0.0000    0.0000    0.0000 H   0  0  0  0  0  0  0  0  0  0  0  0
    0.0000    0.0000    0.0000 H   0  0  0  0  0  0  0  0  0  0  0  0
    0.0000    0.0000    0.0000 H   0  0  0  0  0  0  0  0  0  0  0  0
    0.0000    0.0000    0.0000 H   0  0  0  0  0  0  0  0  0  0  0  0
    0.0000    0.0000    0.0000 H   0  0  0  0  0  0  0  0  0  0  0  0
    0.0000    0.0000    0.0000 H   0  0  0  0  0  0  0  0  0  0  0  0
    0.0000    0.0000    0.0000 H   0  0  0  0  0  0  0  0  0  0  0  0
    0.0000    0.0000    0.0000 H   0  0  0  0  0  0  0  0  0  0  0  0
    0.0000    0.0000    0.0000 H   0  0  0  0  0  0  0  0  0  0  0  0
    0.0000    0.0000    0.0000 H   0  0  0  0  0  0  0  0  0  0  0  0
    0.0000    0.0000    0.0000 H   0  0  0  0  0  0  0  0  0  0  0  0
   12.4759    5.2936    9.1096 C   0  0  0  0  0  0  0  0  0  0  0  0
   11.1011    5.6707    9.5368 C   0  0  0  0  0  0  0  0  0  0  0  0
   10.8428    6.3612   10.5402 O   0  0  0  0  0  0  0  0  0  0  0  0
   10.0084    5.2118    8.7463 N   0  0  0  0  0  0  0  0  0  0  0  0
    8.6252    5.5103    9.0556 C   0  0  0  0  0  0  0  0  0  0  0  0
   12.4601    4.1779    8.9939 H   0  0  0  0  0  0  0  0  0  0  0  0
   12.5964    5.6689    8.0548 H   0  0  0  0  0  0  0  0  0  0  0  0
   10.1871    4.6305    7.8979 H   0  0  0  0  0  0  0  0  0  0  0  0
    8.4840    5.9913   10.0270 H   0  0  0  0  0  0  0  0  0  0  0  0
    8.0719    4.5305    9.0559 H   0  0  0  0  0  0  0  0  0  0  0  0
    8.2567    6.1841    8.2534 H   0  0  0  0  0  0  0  0  0  0  0  0
  1  3  2  0
  1  4  1  0
  1  5  1  0
  2  4  1  0
  2  6  1  0
  4  9  1  0
  4 15  1  0
  5  6  1  0
  5  8  1  0
  6  7  2  3
  9 10  2  0
  9 14  1  0
 10 11  1  0
 11 12  2  0
 12 13  1  0
 13 14  2  0
 15 16  2  0
 15 20  1  0
 16 17  1  0
 17 18  2  0
 18 19  1  0
 19 20  2  0
  2 21  1  0
  7 22  1  0
  8 23  1  0
  8 24  1  0
  8 25  1  0
 10 26  1  0
 11 27  1  0
 12 28  1  0
 13 29  1  0
 14 30  1  0
 16 31  1  0
 17 32  1  0
 19 33  1  0
 20 34  1  0
 35 36  1  0
 36 37  2  0
 36 38  1  0
 38 39  1  0
 35 40  1  0
 35 41  1  0
 38 42  1  0
 39 43  1  0
 39 44  1  0
 39 45  1  0
 18 35  1  0
M  END
>  <attachment_point>  (313) 
32

>  <score>  (313) 
<NA>

$$$$
4djw
     RDKit          3D

 48 51  0  0  0  0  0  0  0  0999 V2000
   22.4950   11.8750   22.5810 C   0  0  0  0  0  0  0  0  0  0  0  0
   22.5380    9.4930   22.4640 N   0  0  0  0  0  0  0  0  0  0  0  0
   22.3600   13.0630   22.3480 O   0  0  0  0  0  0  0  0  0  0  0  0
   22.3390   10.6680   21.5610 C   0  0  0  0  0  0  0  0  0  0  0  0
   22.7860   11.3350   23.8120 N   0  0  0  0  0  0  0  0  0  0  0  0
   22.7800    9.9140   23.7010 C   0  0  0  0  0  0  0  0  0  0  0  0
   22.9970    9.1110   24.7490 N   0  0  0  0  0  0  0  0  0  0  0  0
   23.0220   12.1410   25.0180 C   0  0  0  0  0  0  0  0  0  0  0  0
   20.9020   10.6270   21.0050 C   0  0  0  0  0  0  0  0  0  0  0  0
   20.2720    9.4140   20.7470 C   0  0  0  0  0  0  0  0  0  0  0  0
   18.9690    9.3760   20.2600 C   0  0  0  0  0  0  0  0  0  0  0  0
   18.2800   10.5440   20.0210 C   0  0  0  0  0  0  0  0  0  0  0  0
   18.8920   11.7530   20.2590 C   0  0  0  0  0  0  0  0  0  0  0  0
   20.1950   11.7970   20.7440 C   0  0  0  0  0  0  0  0  0  0  0  0
   23.4880   10.6920   20.5300 C   0  0  0  0  0  0  0  0  0  0  0  0
   23.2110   10.7890   19.1730 C   0  0  0  0  0  0  0  0  0  0  0  0
   24.2350   10.8650   18.2430 C   0  0  0  0  0  0  0  0  0  0  0  0
   25.5500   10.8410   18.6560 C   0  0  0  0  0  0  0  0  0  0  0  0
   25.8710   10.7460   20.0070 C   0  0  0  0  0  0  0  0  0  0  0  0
   24.8260   10.6610   20.9430 C   0  0  0  0  0  0  0  0  0  0  0  0
    0.0000    0.0000    0.0000 H   0  0  0  0  0  0  0  0  0  0  0  0
    0.0000    0.0000    0.0000 H   0  0  0  0  0  0  0  0  0  0  0  0
    0.0000    0.0000    0.0000 H   0  0  0  0  0  0  0  0  0  0  0  0
    0.0000    0.0000    0.0000 H   0  0  0  0  0  0  0  0  0  0  0  0
    0.0000    0.0000    0.0000 H   0  0  0  0  0  0  0  0  0  0  0  0
    0.0000    0.0000    0.0000 H   0  0  0  0  0  0  0  0  0  0  0  0
    0.0000    0.0000    0.0000 H   0  0  0  0  0  0  0  0  0  0  0  0
    0.0000    0.0000    0.0000 H   0  0  0  0  0  0  0  0  0  0  0  0
    0.0000    0.0000    0.0000 H   0  0  0  0  0  0  0  0  0  0  0  0
    0.0000    0.0000    0.0000 H   0  0  0  0  0  0  0  0  0  0  0  0
    0.0000    0.0000    0.0000 H   0  0  0  0  0  0  0  0  0  0  0  0
    0.0000    0.0000    0.0000 H   0  0  0  0  0  0  0  0  0  0  0  0
    0.0000    0.0000    0.0000 H   0  0  0  0  0  0  0  0  0  0  0  0
    0.0000    0.0000    0.0000 H   0  0  0  0  0  0  0  0  0  0  0  0
   12.4200    5.2699    9.0688 N   0  0  0  0  0  0  0  0  0  0  0  0
   11.9815    6.0458    8.0061 C   0  0  0  0  0  0  0  0  0  0  0  0
   12.5954    7.1457    7.8064 O   0  0  0  0  0  0  0  0  0  0  0  0
   10.8840    5.6867    7.1226 C   0  0  0  0  0  0  0  0  0  0  0  0
   10.5554    6.5527    6.1066 C   0  0  0  0  0  0  0  0  0  0  0  0
    9.5110    6.2725    5.2183 C   0  0  0  0  0  0  0  0  0  0  0  0
    8.7888    5.1065    5.3545 C   0  0  0  0  0  0  0  0  0  0  0  0
    9.1515    4.2664    6.3868 C   0  0  0  0  0  0  0  0  0  0  0  0
   10.1729    4.5541    7.2449 N   0  0  0  0  0  0  0  0  0  0  0  0
   12.0013    4.3771    9.3153 H   0  0  0  0  0  0  0  0  0  0  0  0
   11.0992    7.4843    5.9627 H   0  0  0  0  0  0  0  0  0  0  0  0
    9.2387    6.9417    4.4138 H   0  0  0  0  0  0  0  0  0  0  0  0
    7.9689    4.8399    4.6933 H   0  0  0  0  0  0  0  0  0  0  0  0
    8.6378    3.3274    6.5682 H   0  0  0  0  0  0  0  0  0  0  0  0
  1  3  2  0
  1  4  1  0
  1  5  1  0
  2  4  1  0
  2  6  1  0
  4  9  1  0
  4 15  1  0
  5  6  1  0
  5  8  1  0
  6  7  2  3
  9 10  2  0
  9 14  1  0
 10 11  1  0
 11 12  2  0
 12 13  1  0
 13 14  2  0
 15 16  2  0
 15 20  1  0
 16 17  1  0
 17 18  2  0
 18 19  1  0
 19 20  2  0
  2 21  1  0
  7 22  1  0
  8 23  1  0
  8 24  1  0
  8 25  1  0
 10 26  1  0
 11 27  1  0
 12 28  1  0
 13 29  1  0
 14 30  1  0
 16 31  1  0
 17 32  1  0
 19 33  1  0
 20 34  1  0
 35 36  1  0
 36 37  2  0
 36 38  1  0
 38 39  2  0
 39 40  1  0
 40 41  2  0
 41 42  1  0
 42 43  2  0
 43 38  1  0
 35 44  1  0
 39 45  1  0
 40 46  1  0
 41 47  1  0
 42 48  1  0
 18 35  1  0
M  END
>  <attachment_point>  (314) 
32

>  <score>  (314) 
<NA>

$$$$
4djw
     RDKit          3D

 45 48  0  0  0  0  0  0  0  0999 V2000
   22.4950   11.8750   22.5810 C   0  0  0  0  0  0  0  0  0  0  0  0
   22.5380    9.4930   22.4640 N   0  0  0  0  0  0  0  0  0  0  0  0
   22.3600   13.0630   22.3480 O   0  0  0  0  0  0  0  0  0  0  0  0
   22.3390   10.6680   21.5610 C   0  0  0  0  0  0  0  0  0  0  0  0
   22.7860   11.3350   23.8120 N   0  0  0  0  0  0  0  0  0  0  0  0
   22.7800    9.9140   23.7010 C   0  0  0  0  0  0  0  0  0  0  0  0
   22.9970    9.1110   24.7490 N   0  0  0  0  0  0  0  0  0  0  0  0
   23.0220   12.1410   25.0180 C   0  0  0  0  0  0  0  0  0  0  0  0
   20.9020   10.6270   21.0050 C   0  0  0  0  0  0  0  0  0  0  0  0
   20.2720    9.4140   20.7470 C   0  0  0  0  0  0  0  0  0  0  0  0
   18.9690    9.3760   20.2600 C   0  0  0  0  0  0  0  0  0  0  0  0
   18.2800   10.5440   20.0210 C   0  0  0  0  0  0  0  0  0  0  0  0
   18.8920   11.7530   20.2590 C   0  0  0  0  0  0  0  0  0  0  0  0
   20.1950   11.7970   20.7440 C   0  0  0  0  0  0  0  0  0  0  0  0
   23.4880   10.6920   20.5300 C   0  0  0  0  0  0  0  0  0  0  0  0
   23.2110   10.7890   19.1730 C   0  0  0  0  0  0  0  0  0  0  0  0
   24.2350   10.8650   18.2430 C   0  0  0  0  0  0  0  0  0  0  0  0
   25.5500   10.8410   18.6560 C   0  0  0  0  0  0  0  0  0  0  0  0
   25.8710   10.7460   20.0070 C   0  0  0  0  0  0  0  0  0  0  0  0
   24.8260   10.6610   20.9430 C   0  0  0  0  0  0  0  0  0  0  0  0
    0.0000    0.0000    0.0000 H   0  0  0  0  0  0  0  0  0  0  0  0
    0.0000    0.0000    0.0000 H   0  0  0  0  0  0  0  0  0  0  0  0
    0.0000    0.0000    0.0000 H   0  0  0  0  0  0  0  0  0  0  0  0
    0.0000    0.0000    0.0000 H   0  0  0  0  0  0  0  0  0  0  0  0
    0.0000    0.0000    0.0000 H   0  0  0  0  0  0  0  0  0  0  0  0
    0.0000    0.0000    0.0000 H   0  0  0  0  0  0  0  0  0  0  0  0
    0.0000    0.0000    0.0000 H   0  0  0  0  0  0  0  0  0  0  0  0
    0.0000    0.0000    0.0000 H   0  0  0  0  0  0  0  0  0  0  0  0
    0.0000    0.0000    0.0000 H   0  0  0  0  0  0  0  0  0  0  0  0
    0.0000    0.0000    0.0000 H   0  0  0  0  0  0  0  0  0  0  0  0
    0.0000    0.0000    0.0000 H   0  0  0  0  0  0  0  0  0  0  0  0
    0.0000    0.0000    0.0000 H   0  0  0  0  0  0  0  0  0  0  0  0
    0.0000    0.0000    0.0000 H   0  0  0  0  0  0  0  0  0  0  0  0
    0.0000    0.0000    0.0000 H   0  0  0  0  0  0  0  0  0  0  0  0
   12.4106    5.2659    9.0619 O   0  0  0  0  0  0  0  0  0  0  0  0
   12.3678    3.8684    9.1818 C   0  0  0  0  0  0  0  0  0  0  0  0
   11.6296    3.2302   10.1341 C   0  0  0  0  0  0  0  0  0  0  0  0
   11.6111    1.8528   10.2228 C   0  0  0  0  0  0  0  0  0  0  0  0
   12.3628    1.1358    9.3181 C   0  0  0  0  0  0  0  0  0  0  0  0
   13.0836    1.7707    8.3877 N   0  0  0  0  0  0  0  0  0  0  0  0
   13.1033    3.1067    8.2996 C   0  0  0  0  0  0  0  0  0  0  0  0
   11.0548    3.8478   10.8225 H   0  0  0  0  0  0  0  0  0  0  0  0
   11.0150    1.3630   10.9905 H   0  0  0  0  0  0  0  0  0  0  0  0
   12.3449    0.0368    9.3927 H   0  0  0  0  0  0  0  0  0  0  0  0
   13.6912    3.6379    7.5400 H   0  0  0  0  0  0  0  0  0  0  0  0
  1  3  2  0
  1  4  1  0
  1  5  1  0
  2  4  1  0
  2  6  1  0
  4  9  1  0
  4 15  1  0
  5  6  1  0
  5  8  1  0
  6  7  2  3
  9 10  2  0
  9 14  1  0
 10 11  1  0
 11 12  2  0
 12 13  1  0
 13 14  2  0
 15 16  2  0
 15 20  1  0
 16 17  1  0
 17 18  2  0
 18 19  1  0
 19 20  2  0
  2 21  1  0
  7 22  1  0
  8 23  1  0
  8 24  1  0
  8 25  1  0
 10 26  1  0
 11 27  1  0
 12 28  1  0
 13 29  1  0
 14 30  1  0
 16 31  1  0
 17 32  1  0
 19 33  1  0
 20 34  1  0
 35 36  1  0
 36 37  2  0
 37 38  1  0
 38 39  2  0
 39 40  1  0
 40 41  2  0
 41 36  1  0
 37 42  1  0
 38 43  1  0
 39 44  1  0
 41 45  1  0
 18 35  1  0
M  END
>  <attachment_point>  (315) 
32

>  <score>  (315) 
<NA>

$$$$
4djw
     RDKit          3D

 39 41  0  0  0  0  0  0  0  0999 V2000
   22.4950   11.8750   22.5810 C   0  0  0  0  0  0  0  0  0  0  0  0
   22.5380    9.4930   22.4640 N   0  0  0  0  0  0  0  0  0  0  0  0
   22.3600   13.0630   22.3480 O   0  0  0  0  0  0  0  0  0  0  0  0
   22.3390   10.6680   21.5610 C   0  0  0  0  0  0  0  0  0  0  0  0
   22.7860   11.3350   23.8120 N   0  0  0  0  0  0  0  0  0  0  0  0
   22.7800    9.9140   23.7010 C   0  0  0  0  0  0  0  0  0  0  0  0
   22.9970    9.1110   24.7490 N   0  0  0  0  0  0  0  0  0  0  0  0
   23.0220   12.1410   25.0180 C   0  0  0  0  0  0  0  0  0  0  0  0
   20.9020   10.6270   21.0050 C   0  0  0  0  0  0  0  0  0  0  0  0
   20.2720    9.4140   20.7470 C   0  0  0  0  0  0  0  0  0  0  0  0
   18.9690    9.3760   20.2600 C   0  0  0  0  0  0  0  0  0  0  0  0
   18.2800   10.5440   20.0210 C   0  0  0  0  0  0  0  0  0  0  0  0
   18.8920   11.7530   20.2590 C   0  0  0  0  0  0  0  0  0  0  0  0
   20.1950   11.7970   20.7440 C   0  0  0  0  0  0  0  0  0  0  0  0
   23.4880   10.6920   20.5300 C   0  0  0  0  0  0  0  0  0  0  0  0
   23.2110   10.7890   19.1730 C   0  0  0  0  0  0  0  0  0  0  0  0
   24.2350   10.8650   18.2430 C   0  0  0  0  0  0  0  0  0  0  0  0
   25.5500   10.8410   18.6560 C   0  0  0  0  0  0  0  0  0  0  0  0
   25.8710   10.7460   20.0070 C   0  0  0  0  0  0  0  0  0  0  0  0
   24.8260   10.6610   20.9430 C   0  0  0  0  0  0  0  0  0  0  0  0
    0.0000    0.0000    0.0000 H   0  0  0  0  0  0  0  0  0  0  0  0
    0.0000    0.0000    0.0000 H   0  0  0  0  0  0  0  0  0  0  0  0
    0.0000    0.0000    0.0000 H   0  0  0  0  0  0  0  0  0  0  0  0
    0.0000    0.0000    0.0000 H   0  0  0  0  0  0  0  0  0  0  0  0
    0.0000    0.0000    0.0000 H   0  0  0  0  0  0  0  0  0  0  0  0
    0.0000    0.0000    0.0000 H   0  0  0  0  0  0  0  0  0  0  0  0
    0.0000    0.0000    0.0000 H   0  0  0  0  0  0  0  0  0  0  0  0
    0.0000    0.0000    0.0000 H   0  0  0  0  0  0  0  0  0  0  0  0
    0.0000    0.0000    0.0000 H   0  0  0  0  0  0  0  0  0  0  0  0
    0.0000    0.0000    0.0000 H   0  0  0  0  0  0  0  0  0  0  0  0
    0.0000    0.0000    0.0000 H   0  0  0  0  0  0  0  0  0  0  0  0
    0.0000    0.0000    0.0000 H   0  0  0  0  0  0  0  0  0  0  0  0
    0.0000    0.0000    0.0000 H   0  0  0  0  0  0  0  0  0  0  0  0
    0.0000    0.0000    0.0000 H   0  0  0  0  0  0  0  0  0  0  0  0
   12.2906    5.2150    8.9743 C   0  0  0  0  0  0  0  0  0  0  0  0
   11.0370    5.8417   10.0130 S   0  0  0  0  0  0  0  0  0  0  0  0
   12.6752    4.2252    9.1278 H   0  0  0  0  0  0  0  0  0  0  0  0
   12.6684    5.8073    8.1653 H   0  0  0  0  0  0  0  0  0  0  0  0
   10.2211    4.7973   10.5157 H   0  0  0  0  0  0  0  0  0  0  0  0
  1  3  2  0
  1  4  1  0
  1  5  1  0
  2  4  1  0
  2  6  1  0
  4  9  1  0
  4 15  1  0
  5  6  1  0
  5  8  1  0
  6  7  2  3
  9 10  2  0
  9 14  1  0
 10 11  1  0
 11 12  2  0
 12 13  1  0
 13 14  2  0
 15 16  2  0
 15 20  1  0
 16 17  1  0
 17 18  2  0
 18 19  1  0
 19 20  2  0
  2 21  1  0
  7 22  1  0
  8 23  1  0
  8 24  1  0
  8 25  1  0
 10 26  1  0
 11 27  1  0
 12 28  1  0
 13 29  1  0
 14 30  1  0
 16 31  1  0
 17 32  1  0
 19 33  1  0
 20 34  1  0
 35 36  1  0
 35 37  1  0
 35 38  1  0
 36 39  1  0
 18 35  1  0
M  END
>  <attachment_point>  (316) 
32

>  <score>  (316) 
<NA>

$$$$
4djw
     RDKit          3D

 46 49  0  0  0  0  0  0  0  0999 V2000
   22.4950   11.8750   22.5810 C   0  0  0  0  0  0  0  0  0  0  0  0
   22.5380    9.4930   22.4640 N   0  0  0  0  0  0  0  0  0  0  0  0
   22.3600   13.0630   22.3480 O   0  0  0  0  0  0  0  0  0  0  0  0
   22.3390   10.6680   21.5610 C   0  0  0  0  0  0  0  0  0  0  0  0
   22.7860   11.3350   23.8120 N   0  0  0  0  0  0  0  0  0  0  0  0
   22.7800    9.9140   23.7010 C   0  0  0  0  0  0  0  0  0  0  0  0
   22.9970    9.1110   24.7490 N   0  0  0  0  0  0  0  0  0  0  0  0
   23.0220   12.1410   25.0180 C   0  0  0  0  0  0  0  0  0  0  0  0
   20.9020   10.6270   21.0050 C   0  0  0  0  0  0  0  0  0  0  0  0
   20.2720    9.4140   20.7470 C   0  0  0  0  0  0  0  0  0  0  0  0
   18.9690    9.3760   20.2600 C   0  0  0  0  0  0  0  0  0  0  0  0
   18.2800   10.5440   20.0210 C   0  0  0  0  0  0  0  0  0  0  0  0
   18.8920   11.7530   20.2590 C   0  0  0  0  0  0  0  0  0  0  0  0
   20.1950   11.7970   20.7440 C   0  0  0  0  0  0  0  0  0  0  0  0
   23.4880   10.6920   20.5300 C   0  0  0  0  0  0  0  0  0  0  0  0
   23.2110   10.7890   19.1730 C   0  0  0  0  0  0  0  0  0  0  0  0
   24.2350   10.8650   18.2430 C   0  0  0  0  0  0  0  0  0  0  0  0
   25.5500   10.8410   18.6560 C   0  0  0  0  0  0  0  0  0  0  0  0
   25.8710   10.7460   20.0070 C   0  0  0  0  0  0  0  0  0  0  0  0
   24.8260   10.6610   20.9430 C   0  0  0  0  0  0  0  0  0  0  0  0
    0.0000    0.0000    0.0000 H   0  0  0  0  0  0  0  0  0  0  0  0
    0.0000    0.0000    0.0000 H   0  0  0  0  0  0  0  0  0  0  0  0
    0.0000    0.0000    0.0000 H   0  0  0  0  0  0  0  0  0  0  0  0
    0.0000    0.0000    0.0000 H   0  0  0  0  0  0  0  0  0  0  0  0
    0.0000    0.0000    0.0000 H   0  0  0  0  0  0  0  0  0  0  0  0
    0.0000    0.0000    0.0000 H   0  0  0  0  0  0  0  0  0  0  0  0
    0.0000    0.0000    0.0000 H   0  0  0  0  0  0  0  0  0  0  0  0
    0.0000    0.0000    0.0000 H   0  0  0  0  0  0  0  0  0  0  0  0
    0.0000    0.0000    0.0000 H   0  0  0  0  0  0  0  0  0  0  0  0
    0.0000    0.0000    0.0000 H   0  0  0  0  0  0  0  0  0  0  0  0
    0.0000    0.0000    0.0000 H   0  0  0  0  0  0  0  0  0  0  0  0
    0.0000    0.0000    0.0000 H   0  0  0  0  0  0  0  0  0  0  0  0
    0.0000    0.0000    0.0000 H   0  0  0  0  0  0  0  0  0  0  0  0
    0.0000    0.0000    0.0000 H   0  0  0  0  0  0  0  0  0  0  0  0
   12.4338    5.2757    9.0788 O   0  0  0  0  0  0  0  0  0  0  0  0
   12.5981    3.8691    9.1465 C   0  0  0  0  0  0  0  0  0  0  0  0
   11.5060    3.2657    8.3435 C   0  0  0  0  0  0  0  0  0  0  0  0
   11.5098    3.6849    6.8744 C   0  0  0  0  0  0  0  0  0  0  0  0
   11.7254    2.2676    7.2858 C   0  0  0  0  0  0  0  0  0  0  0  0
   13.6148    3.6977    8.7251 H   0  0  0  0  0  0  0  0  0  0  0  0
   12.6363    3.5319   10.1925 H   0  0  0  0  0  0  0  0  0  0  0  0
   10.5235    3.2157    8.8693 H   0  0  0  0  0  0  0  0  0  0  0  0
   10.5378    4.0483    6.5186 H   0  0  0  0  0  0  0  0  0  0  0  0
   12.3731    4.2143    6.4728 H   0  0  0  0  0  0  0  0  0  0  0  0
   10.8792    1.5891    7.0231 H   0  0  0  0  0  0  0  0  0  0  0  0
   12.7086    1.7985    7.1126 H   0  0  0  0  0  0  0  0  0  0  0  0
  1  3  2  0
  1  4  1  0
  1  5  1  0
  2  4  1  0
  2  6  1  0
  4  9  1  0
  4 15  1  0
  5  6  1  0
  5  8  1  0
  6  7  2  3
  9 10  2  0
  9 14  1  0
 10 11  1  0
 11 12  2  0
 12 13  1  0
 13 14  2  0
 15 16  2  0
 15 20  1  0
 16 17  1  0
 17 18  2  0
 18 19  1  0
 19 20  2  0
  2 21  1  0
  7 22  1  0
  8 23  1  0
  8 24  1  0
  8 25  1  0
 10 26  1  0
 11 27  1  0
 12 28  1  0
 13 29  1  0
 14 30  1  0
 16 31  1  0
 17 32  1  0
 19 33  1  0
 20 34  1  0
 35 36  1  0
 36 37  1  0
 37 38  1  0
 38 39  1  0
 39 37  1  0
 36 40  1  0
 36 41  1  0
 37 42  1  0
 38 43  1  0
 38 44  1  0
 39 45  1  0
 39 46  1  0
 18 35  1  0
M  END
>  <attachment_point>  (317) 
32

>  <score>  (317) 
<NA>

$$$$
4djw
     RDKit          3D

 48 50  0  0  0  0  0  0  0  0999 V2000
   22.4950   11.8750   22.5810 C   0  0  0  0  0  0  0  0  0  0  0  0
   22.5380    9.4930   22.4640 N   0  0  0  0  0  0  0  0  0  0  0  0
   22.3600   13.0630   22.3480 O   0  0  0  0  0  0  0  0  0  0  0  0
   22.3390   10.6680   21.5610 C   0  0  0  0  0  0  0  0  0  0  0  0
   22.7860   11.3350   23.8120 N   0  0  0  0  0  0  0  0  0  0  0  0
   22.7800    9.9140   23.7010 C   0  0  0  0  0  0  0  0  0  0  0  0
   22.9970    9.1110   24.7490 N   0  0  0  0  0  0  0  0  0  0  0  0
   23.0220   12.1410   25.0180 C   0  0  0  0  0  0  0  0  0  0  0  0
   20.9020   10.6270   21.0050 C   0  0  0  0  0  0  0  0  0  0  0  0
   20.2720    9.4140   20.7470 C   0  0  0  0  0  0  0  0  0  0  0  0
   18.9690    9.3760   20.2600 C   0  0  0  0  0  0  0  0  0  0  0  0
   18.2800   10.5440   20.0210 C   0  0  0  0  0  0  0  0  0  0  0  0
   18.8920   11.7530   20.2590 C   0  0  0  0  0  0  0  0  0  0  0  0
   20.1950   11.7970   20.7440 C   0  0  0  0  0  0  0  0  0  0  0  0
   23.4880   10.6920   20.5300 C   0  0  0  0  0  0  0  0  0  0  0  0
   23.2110   10.7890   19.1730 C   0  0  0  0  0  0  0  0  0  0  0  0
   24.2350   10.8650   18.2430 C   0  0  0  0  0  0  0  0  0  0  0  0
   25.5500   10.8410   18.6560 C   0  0  0  0  0  0  0  0  0  0  0  0
   25.8710   10.7460   20.0070 C   0  0  0  0  0  0  0  0  0  0  0  0
   24.8260   10.6610   20.9430 C   0  0  0  0  0  0  0  0  0  0  0  0
    0.0000    0.0000    0.0000 H   0  0  0  0  0  0  0  0  0  0  0  0
    0.0000    0.0000    0.0000 H   0  0  0  0  0  0  0  0  0  0  0  0
    0.0000    0.0000    0.0000 H   0  0  0  0  0  0  0  0  0  0  0  0
    0.0000    0.0000    0.0000 H   0  0  0  0  0  0  0  0  0  0  0  0
    0.0000    0.0000    0.0000 H   0  0  0  0  0  0  0  0  0  0  0  0
    0.0000    0.0000    0.0000 H   0  0  0  0  0  0  0  0  0  0  0  0
    0.0000    0.0000    0.0000 H   0  0  0  0  0  0  0  0  0  0  0  0
    0.0000    0.0000    0.0000 H   0  0  0  0  0  0  0  0  0  0  0  0
    0.0000    0.0000    0.0000 H   0  0  0  0  0  0  0  0  0  0  0  0
    0.0000    0.0000    0.0000 H   0  0  0  0  0  0  0  0  0  0  0  0
    0.0000    0.0000    0.0000 H   0  0  0  0  0  0  0  0  0  0  0  0
    0.0000    0.0000    0.0000 H   0  0  0  0  0  0  0  0  0  0  0  0
    0.0000    0.0000    0.0000 H   0  0  0  0  0  0  0  0  0  0  0  0
    0.0000    0.0000    0.0000 H   0  0  0  0  0  0  0  0  0  0  0  0
   12.5029    5.3050    9.1293 O   0  0  0  0  0  0  0  0  0  0  0  0
   11.7297    6.1871    8.4097 C   0  0  0  0  0  0  0  0  0  0  0  0
   10.6438    5.4567    7.6500 C   0  0  0  0  0  0  0  0  0  0  0  0
    9.8389    6.4699    6.8889 C   0  0  0  0  0  0  0  0  0  0  0  0
   11.1625    4.3396    6.8035 C   0  0  0  0  0  0  0  0  0  0  0  0
   12.3037    6.8825    7.7748 H   0  0  0  0  0  0  0  0  0  0  0  0
   11.1816    6.8433    9.1492 H   0  0  0  0  0  0  0  0  0  0  0  0
    9.9767    5.0031    8.4281 H   0  0  0  0  0  0  0  0  0  0  0  0
    9.0231    6.8537    7.5590 H   0  0  0  0  0  0  0  0  0  0  0  0
   10.5107    7.3238    6.6333 H   0  0  0  0  0  0  0  0  0  0  0  0
    9.4455    6.0629    5.9567 H   0  0  0  0  0  0  0  0  0  0  0  0
   11.5287    4.6504    5.8101 H   0  0  0  0  0  0  0  0  0  0  0  0
   11.9352    3.7860    7.3657 H   0  0  0  0  0  0  0  0  0  0  0  0
   10.3095    3.6073    6.6886 H   0  0  0  0  0  0  0  0  0  0  0  0
  1  3  2  0
  1  4  1  0
  1  5  1  0
  2  4  1  0
  2  6  1  0
  4  9  1  0
  4 15  1  0
  5  6  1  0
  5  8  1  0
  6  7  2  3
  9 10  2  0
  9 14  1  0
 10 11  1  0
 11 12  2  0
 12 13  1  0
 13 14  2  0
 15 16  2  0
 15 20  1  0
 16 17  1  0
 17 18  2  0
 18 19  1  0
 19 20  2  0
  2 21  1  0
  7 22  1  0
  8 23  1  0
  8 24  1  0
  8 25  1  0
 10 26  1  0
 11 27  1  0
 12 28  1  0
 13 29  1  0
 14 30  1  0
 16 31  1  0
 17 32  1  0
 19 33  1  0
 20 34  1  0
 35 36  1  0
 36 37  1  0
 37 38  1  0
 37 39  1  0
 36 40  1  0
 36 41  1  0
 37 42  1  0
 38 43  1  0
 38 44  1  0
 38 45  1  0
 39 46  1  0
 39 47  1  0
 39 48  1  0
 18 35  1  0
M  END
>  <attachment_point>  (318) 
32

>  <score>  (318) 
<NA>

$$$$
4djw
     RDKit          3D

 46 48  0  0  0  0  0  0  0  0999 V2000
   22.4950   11.8750   22.5810 C   0  0  0  0  0  0  0  0  0  0  0  0
   22.5380    9.4930   22.4640 N   0  0  0  0  0  0  0  0  0  0  0  0
   22.3600   13.0630   22.3480 O   0  0  0  0  0  0  0  0  0  0  0  0
   22.3390   10.6680   21.5610 C   0  0  0  0  0  0  0  0  0  0  0  0
   22.7860   11.3350   23.8120 N   0  0  0  0  0  0  0  0  0  0  0  0
   22.7800    9.9140   23.7010 C   0  0  0  0  0  0  0  0  0  0  0  0
   22.9970    9.1110   24.7490 N   0  0  0  0  0  0  0  0  0  0  0  0
   23.0220   12.1410   25.0180 C   0  0  0  0  0  0  0  0  0  0  0  0
   20.9020   10.6270   21.0050 C   0  0  0  0  0  0  0  0  0  0  0  0
   20.2720    9.4140   20.7470 C   0  0  0  0  0  0  0  0  0  0  0  0
   18.9690    9.3760   20.2600 C   0  0  0  0  0  0  0  0  0  0  0  0
   18.2800   10.5440   20.0210 C   0  0  0  0  0  0  0  0  0  0  0  0
   18.8920   11.7530   20.2590 C   0  0  0  0  0  0  0  0  0  0  0  0
   20.1950   11.7970   20.7440 C   0  0  0  0  0  0  0  0  0  0  0  0
   23.4880   10.6920   20.5300 C   0  0  0  0  0  0  0  0  0  0  0  0
   23.2110   10.7890   19.1730 C   0  0  0  0  0  0  0  0  0  0  0  0
   24.2350   10.8650   18.2430 C   0  0  0  0  0  0  0  0  0  0  0  0
   25.5500   10.8410   18.6560 C   0  0  0  0  0  0  0  0  0  0  0  0
   25.8710   10.7460   20.0070 C   0  0  0  0  0  0  0  0  0  0  0  0
   24.8260   10.6610   20.9430 C   0  0  0  0  0  0  0  0  0  0  0  0
    0.0000    0.0000    0.0000 H   0  0  0  0  0  0  0  0  0  0  0  0
    0.0000    0.0000    0.0000 H   0  0  0  0  0  0  0  0  0  0  0  0
    0.0000    0.0000    0.0000 H   0  0  0  0  0  0  0  0  0  0  0  0
    0.0000    0.0000    0.0000 H   0  0  0  0  0  0  0  0  0  0  0  0
    0.0000    0.0000    0.0000 H   0  0  0  0  0  0  0  0  0  0  0  0
    0.0000    0.0000    0.0000 H   0  0  0  0  0  0  0  0  0  0  0  0
    0.0000    0.0000    0.0000 H   0  0  0  0  0  0  0  0  0  0  0  0
    0.0000    0.0000    0.0000 H   0  0  0  0  0  0  0  0  0  0  0  0
    0.0000    0.0000    0.0000 H   0  0  0  0  0  0  0  0  0  0  0  0
    0.0000    0.0000    0.0000 H   0  0  0  0  0  0  0  0  0  0  0  0
    0.0000    0.0000    0.0000 H   0  0  0  0  0  0  0  0  0  0  0  0
    0.0000    0.0000    0.0000 H   0  0  0  0  0  0  0  0  0  0  0  0
    0.0000    0.0000    0.0000 H   0  0  0  0  0  0  0  0  0  0  0  0
    0.0000    0.0000    0.0000 H   0  0  0  0  0  0  0  0  0  0  0  0
   12.4714    5.2917    9.1063 N   0  0  0  0  0  0  0  0  0  0  0  0
   12.4523    3.8922    8.7780 C   0  0  0  0  0  0  0  0  0  0  0  0
   13.3715    3.1405    9.1912 O   0  0  0  0  0  0  0  0  0  0  0  0
   11.4415    3.3588    8.0163 O   0  0  0  0  0  0  0  0  0  0  0  0
   11.3496    2.0001    7.6511 C   0  0  0  0  0  0  0  0  0  0  0  0
   12.5031    1.5050    6.8547 C   0  0  0  0  0  0  0  0  0  0  0  0
   11.6899    5.8921    8.7462 H   0  0  0  0  0  0  0  0  0  0  0  0
   11.1635    1.3359    8.5389 H   0  0  0  0  0  0  0  0  0  0  0  0
   10.4262    1.8899    7.0185 H   0  0  0  0  0  0  0  0  0  0  0  0
   12.2287    1.2661    5.7849 H   0  0  0  0  0  0  0  0  0  0  0  0
   12.9103    0.5269    7.2440 H   0  0  0  0  0  0  0  0  0  0  0  0
   13.3290    2.2266    6.7920 H   0  0  0  0  0  0  0  0  0  0  0  0
  1  3  2  0
  1  4  1  0
  1  5  1  0
  2  4  1  0
  2  6  1  0
  4  9  1  0
  4 15  1  0
  5  6  1  0
  5  8  1  0
  6  7  2  3
  9 10  2  0
  9 14  1  0
 10 11  1  0
 11 12  2  0
 12 13  1  0
 13 14  2  0
 15 16  2  0
 15 20  1  0
 16 17  1  0
 17 18  2  0
 18 19  1  0
 19 20  2  0
  2 21  1  0
  7 22  1  0
  8 23  1  0
  8 24  1  0
  8 25  1  0
 10 26  1  0
 11 27  1  0
 12 28  1  0
 13 29  1  0
 14 30  1  0
 16 31  1  0
 17 32  1  0
 19 33  1  0
 20 34  1  0
 35 36  1  0
 36 37  2  0
 36 38  1  0
 38 39  1  0
 39 40  1  0
 35 41  1  0
 39 42  1  0
 39 43  1  0
 40 44  1  0
 40 45  1  0
 40 46  1  0
 18 35  1  0
M  END
>  <attachment_point>  (319) 
32

>  <score>  (319) 
<NA>

$$$$
4djw
     RDKit          3D

 56 58  0  0  0  0  0  0  0  0999 V2000
   22.4950   11.8750   22.5810 C   0  0  0  0  0  0  0  0  0  0  0  0
   22.5380    9.4930   22.4640 N   0  0  0  0  0  0  0  0  0  0  0  0
   22.3600   13.0630   22.3480 O   0  0  0  0  0  0  0  0  0  0  0  0
   22.3390   10.6680   21.5610 C   0  0  0  0  0  0  0  0  0  0  0  0
   22.7860   11.3350   23.8120 N   0  0  0  0  0  0  0  0  0  0  0  0
   22.7800    9.9140   23.7010 C   0  0  0  0  0  0  0  0  0  0  0  0
   22.9970    9.1110   24.7490 N   0  0  0  0  0  0  0  0  0  0  0  0
   23.0220   12.1410   25.0180 C   0  0  0  0  0  0  0  0  0  0  0  0
   20.9020   10.6270   21.0050 C   0  0  0  0  0  0  0  0  0  0  0  0
   20.2720    9.4140   20.7470 C   0  0  0  0  0  0  0  0  0  0  0  0
   18.9690    9.3760   20.2600 C   0  0  0  0  0  0  0  0  0  0  0  0
   18.2800   10.5440   20.0210 C   0  0  0  0  0  0  0  0  0  0  0  0
   18.8920   11.7530   20.2590 C   0  0  0  0  0  0  0  0  0  0  0  0
   20.1950   11.7970   20.7440 C   0  0  0  0  0  0  0  0  0  0  0  0
   23.4880   10.6920   20.5300 C   0  0  0  0  0  0  0  0  0  0  0  0
   23.2110   10.7890   19.1730 C   0  0  0  0  0  0  0  0  0  0  0  0
   24.2350   10.8650   18.2430 C   0  0  0  0  0  0  0  0  0  0  0  0
   25.5500   10.8410   18.6560 C   0  0  0  0  0  0  0  0  0  0  0  0
   25.8710   10.7460   20.0070 C   0  0  0  0  0  0  0  0  0  0  0  0
   24.8260   10.6610   20.9430 C   0  0  0  0  0  0  0  0  0  0  0  0
    0.0000    0.0000    0.0000 H   0  0  0  0  0  0  0  0  0  0  0  0
    0.0000    0.0000    0.0000 H   0  0  0  0  0  0  0  0  0  0  0  0
    0.0000    0.0000    0.0000 H   0  0  0  0  0  0  0  0  0  0  0  0
    0.0000    0.0000    0.0000 H   0  0  0  0  0  0  0  0  0  0  0  0
    0.0000    0.0000    0.0000 H   0  0  0  0  0  0  0  0  0  0  0  0
    0.0000    0.0000    0.0000 H   0  0  0  0  0  0  0  0  0  0  0  0
    0.0000    0.0000    0.0000 H   0  0  0  0  0  0  0  0  0  0  0  0
    0.0000    0.0000    0.0000 H   0  0  0  0  0  0  0  0  0  0  0  0
    0.0000    0.0000    0.0000 H   0  0  0  0  0  0  0  0  0  0  0  0
    0.0000    0.0000    0.0000 H   0  0  0  0  0  0  0  0  0  0  0  0
    0.0000    0.0000    0.0000 H   0  0  0  0  0  0  0  0  0  0  0  0
    0.0000    0.0000    0.0000 H   0  0  0  0  0  0  0  0  0  0  0  0
    0.0000    0.0000    0.0000 H   0  0  0  0  0  0  0  0  0  0  0  0
    0.0000    0.0000    0.0000 H   0  0  0  0  0  0  0  0  0  0  0  0
   12.3996    5.2612    9.0539 O   0  0  0  0  0  0  0  0  0  0  0  0
   11.9678    4.3451   10.0460 C   0  0  0  0  0  0  0  0  0  0  0  0
   10.7649    3.6378    9.5194 C   0  0  0  0  0  0  0  0  0  0  0  0
   10.9782    2.9076    8.3230 N   0  0  0  0  0  0  0  0  0  0  0  0
   11.7716    1.7805    8.3353 C   0  0  0  0  0  0  0  0  0  0  0  0
   11.8945    1.1765    6.9573 C   0  0  0  0  0  0  0  0  0  0  0  0
   10.4392    3.4222    7.1505 C   0  0  0  0  0  0  0  0  0  0  0  0
    8.9436    3.4231    7.0502 C   0  0  0  0  0  0  0  0  0  0  0  0
   12.7775    3.7192   10.4016 H   0  0  0  0  0  0  0  0  0  0  0  0
   11.6362    4.9808   10.8935 H   0  0  0  0  0  0  0  0  0  0  0  0
   10.4203    2.9266   10.2986 H   0  0  0  0  0  0  0  0  0  0  0  0
    9.9878    4.4077    9.3258 H   0  0  0  0  0  0  0  0  0  0  0  0
   11.4292    0.9309    8.9747 H   0  0  0  0  0  0  0  0  0  0  0  0
   12.8347    1.9749    8.6630 H   0  0  0  0  0  0  0  0  0  0  0  0
   12.4993    0.2252    7.0204 H   0  0  0  0  0  0  0  0  0  0  0  0
   10.9263    0.9110    6.4943 H   0  0  0  0  0  0  0  0  0  0  0  0
   12.4926    1.8146    6.2708 H   0  0  0  0  0  0  0  0  0  0  0  0
   10.7925    4.4901    7.0257 H   0  0  0  0  0  0  0  0  0  0  0  0
   10.8093    2.8929    6.2564 H   0  0  0  0  0  0  0  0  0  0  0  0
    8.6402    4.1302    6.2206 H   0  0  0  0  0  0  0  0  0  0  0  0
    8.5114    2.4386    6.7754 H   0  0  0  0  0  0  0  0  0  0  0  0
    8.4271    3.7607    7.9453 H   0  0  0  0  0  0  0  0  0  0  0  0
  1  3  2  0
  1  4  1  0
  1  5  1  0
  2  4  1  0
  2  6  1  0
  4  9  1  0
  4 15  1  0
  5  6  1  0
  5  8  1  0
  6  7  2  3
  9 10  2  0
  9 14  1  0
 10 11  1  0
 11 12  2  0
 12 13  1  0
 13 14  2  0
 15 16  2  0
 15 20  1  0
 16 17  1  0
 17 18  2  0
 18 19  1  0
 19 20  2  0
  2 21  1  0
  7 22  1  0
  8 23  1  0
  8 24  1  0
  8 25  1  0
 10 26  1  0
 11 27  1  0
 12 28  1  0
 13 29  1  0
 14 30  1  0
 16 31  1  0
 17 32  1  0
 19 33  1  0
 20 34  1  0
 35 36  1  0
 36 37  1  0
 37 38  1  0
 38 39  1  0
 39 40  1  0
 38 41  1  0
 41 42  1  0
 36 43  1  0
 36 44  1  0
 37 45  1  0
 37 46  1  0
 39 47  1  0
 39 48  1  0
 40 49  1  0
 40 50  1  0
 40 51  1  0
 41 52  1  0
 41 53  1  0
 42 54  1  0
 42 55  1  0
 42 56  1  0
 18 35  1  0
M  END
>  <attachment_point>  (320) 
32

>  <score>  (320) 
<NA>

$$$$
4djw
     RDKit          3D

 47 50  0  0  0  0  0  0  0  0999 V2000
   22.4950   11.8750   22.5810 C   0  0  0  0  0  0  0  0  0  0  0  0
   22.5380    9.4930   22.4640 N   0  0  0  0  0  0  0  0  0  0  0  0
   22.3600   13.0630   22.3480 O   0  0  0  0  0  0  0  0  0  0  0  0
   22.3390   10.6680   21.5610 C   0  0  0  0  0  0  0  0  0  0  0  0
   22.7860   11.3350   23.8120 N   0  0  0  0  0  0  0  0  0  0  0  0
   22.7800    9.9140   23.7010 C   0  0  0  0  0  0  0  0  0  0  0  0
   22.9970    9.1110   24.7490 N   0  0  0  0  0  0  0  0  0  0  0  0
   23.0220   12.1410   25.0180 C   0  0  0  0  0  0  0  0  0  0  0  0
   20.9020   10.6270   21.0050 C   0  0  0  0  0  0  0  0  0  0  0  0
   20.2720    9.4140   20.7470 C   0  0  0  0  0  0  0  0  0  0  0  0
   18.9690    9.3760   20.2600 C   0  0  0  0  0  0  0  0  0  0  0  0
   18.2800   10.5440   20.0210 C   0  0  0  0  0  0  0  0  0  0  0  0
   18.8920   11.7530   20.2590 C   0  0  0  0  0  0  0  0  0  0  0  0
   20.1950   11.7970   20.7440 C   0  0  0  0  0  0  0  0  0  0  0  0
   23.4880   10.6920   20.5300 C   0  0  0  0  0  0  0  0  0  0  0  0
   23.2110   10.7890   19.1730 C   0  0  0  0  0  0  0  0  0  0  0  0
   24.2350   10.8650   18.2430 C   0  0  0  0  0  0  0  0  0  0  0  0
   25.5500   10.8410   18.6560 C   0  0  0  0  0  0  0  0  0  0  0  0
   25.8710   10.7460   20.0070 C   0  0  0  0  0  0  0  0  0  0  0  0
   24.8260   10.6610   20.9430 C   0  0  0  0  0  0  0  0  0  0  0  0
    0.0000    0.0000    0.0000 H   0  0  0  0  0  0  0  0  0  0  0  0
    0.0000    0.0000    0.0000 H   0  0  0  0  0  0  0  0  0  0  0  0
    0.0000    0.0000    0.0000 H   0  0  0  0  0  0  0  0  0  0  0  0
    0.0000    0.0000    0.0000 H   0  0  0  0  0  0  0  0  0  0  0  0
    0.0000    0.0000    0.0000 H   0  0  0  0  0  0  0  0  0  0  0  0
    0.0000    0.0000    0.0000 H   0  0  0  0  0  0  0  0  0  0  0  0
    0.0000    0.0000    0.0000 H   0  0  0  0  0  0  0  0  0  0  0  0
    0.0000    0.0000    0.0000 H   0  0  0  0  0  0  0  0  0  0  0  0
    0.0000    0.0000    0.0000 H   0  0  0  0  0  0  0  0  0  0  0  0
    0.0000    0.0000    0.0000 H   0  0  0  0  0  0  0  0  0  0  0  0
    0.0000    0.0000    0.0000 H   0  0  0  0  0  0  0  0  0  0  0  0
    0.0000    0.0000    0.0000 H   0  0  0  0  0  0  0  0  0  0  0  0
    0.0000    0.0000    0.0000 H   0  0  0  0  0  0  0  0  0  0  0  0
    0.0000    0.0000    0.0000 H   0  0  0  0  0  0  0  0  0  0  0  0
   12.4482    5.2818    9.0894 C   0  0  0  0  0  0  0  0  0  0  0  0
   12.0492    6.0015    7.9881 C   0  0  0  0  0  0  0  0  0  0  0  0
   10.9801    5.5493    7.2062 C   0  0  0  0  0  0  0  0  0  0  0  0
   10.3224    4.3850    7.5323 C   0  0  0  0  0  0  0  0  0  0  0  0
    9.2628    3.9147    6.7774 O   0  0  0  0  0  0  0  0  0  0  0  0
   10.7288    3.6715    8.6360 C   0  0  0  0  0  0  0  0  0  0  0  0
   10.0428    2.5018    8.9357 O   0  0  0  0  0  0  0  0  0  0  0  0
   11.7954    4.1044    9.4329 C   0  0  0  0  0  0  0  0  0  0  0  0
   12.5348    6.9177    7.6961 H   0  0  0  0  0  0  0  0  0  0  0  0
   10.6636    6.1137    6.3387 H   0  0  0  0  0  0  0  0  0  0  0  0
    8.9863    2.9512    6.7158 H   0  0  0  0  0  0  0  0  0  0  0  0
    9.2061    2.5441    9.5042 H   0  0  0  0  0  0  0  0  0  0  0  0
   12.0910    3.5206   10.2947 H   0  0  0  0  0  0  0  0  0  0  0  0
  1  3  2  0
  1  4  1  0
  1  5  1  0
  2  4  1  0
  2  6  1  0
  4  9  1  0
  4 15  1  0
  5  6  1  0
  5  8  1  0
  6  7  2  3
  9 10  2  0
  9 14  1  0
 10 11  1  0
 11 12  2  0
 12 13  1  0
 13 14  2  0
 15 16  2  0
 15 20  1  0
 16 17  1  0
 17 18  2  0
 18 19  1  0
 19 20  2  0
  2 21  1  0
  7 22  1  0
  8 23  1  0
  8 24  1  0
  8 25  1  0
 10 26  1  0
 11 27  1  0
 12 28  1  0
 13 29  1  0
 14 30  1  0
 16 31  1  0
 17 32  1  0
 19 33  1  0
 20 34  1  0
 35 36  2  0
 36 37  1  0
 37 38  2  0
 38 39  1  0
 38 40  1  0
 40 41  1  0
 40 42  2  0
 42 35  1  0
 36 43  1  0
 37 44  1  0
 39 45  1  0
 41 46  1  0
 42 47  1  0
 18 35  1  0
M  END
>  <attachment_point>  (321) 
32

>  <score>  (321) 
<NA>

$$$$
4djw
     RDKit          3D

 43 45  0  0  0  0  0  0  0  0999 V2000
   22.4950   11.8750   22.5810 C   0  0  0  0  0  0  0  0  0  0  0  0
   22.5380    9.4930   22.4640 N   0  0  0  0  0  0  0  0  0  0  0  0
   22.3600   13.0630   22.3480 O   0  0  0  0  0  0  0  0  0  0  0  0
   22.3390   10.6680   21.5610 C   0  0  0  0  0  0  0  0  0  0  0  0
   22.7860   11.3350   23.8120 N   0  0  0  0  0  0  0  0  0  0  0  0
   22.7800    9.9140   23.7010 C   0  0  0  0  0  0  0  0  0  0  0  0
   22.9970    9.1110   24.7490 N   0  0  0  0  0  0  0  0  0  0  0  0
   23.0220   12.1410   25.0180 C   0  0  0  0  0  0  0  0  0  0  0  0
   20.9020   10.6270   21.0050 C   0  0  0  0  0  0  0  0  0  0  0  0
   20.2720    9.4140   20.7470 C   0  0  0  0  0  0  0  0  0  0  0  0
   18.9690    9.3760   20.2600 C   0  0  0  0  0  0  0  0  0  0  0  0
   18.2800   10.5440   20.0210 C   0  0  0  0  0  0  0  0  0  0  0  0
   18.8920   11.7530   20.2590 C   0  0  0  0  0  0  0  0  0  0  0  0
   20.1950   11.7970   20.7440 C   0  0  0  0  0  0  0  0  0  0  0  0
   23.4880   10.6920   20.5300 C   0  0  0  0  0  0  0  0  0  0  0  0
   23.2110   10.7890   19.1730 C   0  0  0  0  0  0  0  0  0  0  0  0
   24.2350   10.8650   18.2430 C   0  0  0  0  0  0  0  0  0  0  0  0
   25.5500   10.8410   18.6560 C   0  0  0  0  0  0  0  0  0  0  0  0
   25.8710   10.7460   20.0070 C   0  0  0  0  0  0  0  0  0  0  0  0
   24.8260   10.6610   20.9430 C   0  0  0  0  0  0  0  0  0  0  0  0
    0.0000    0.0000    0.0000 H   0  0  0  0  0  0  0  0  0  0  0  0
    0.0000    0.0000    0.0000 H   0  0  0  0  0  0  0  0  0  0  0  0
    0.0000    0.0000    0.0000 H   0  0  0  0  0  0  0  0  0  0  0  0
    0.0000    0.0000    0.0000 H   0  0  0  0  0  0  0  0  0  0  0  0
    0.0000    0.0000    0.0000 H   0  0  0  0  0  0  0  0  0  0  0  0
    0.0000    0.0000    0.0000 H   0  0  0  0  0  0  0  0  0  0  0  0
    0.0000    0.0000    0.0000 H   0  0  0  0  0  0  0  0  0  0  0  0
    0.0000    0.0000    0.0000 H   0  0  0  0  0  0  0  0  0  0  0  0
    0.0000    0.0000    0.0000 H   0  0  0  0  0  0  0  0  0  0  0  0
    0.0000    0.0000    0.0000 H   0  0  0  0  0  0  0  0  0  0  0  0
    0.0000    0.0000    0.0000 H   0  0  0  0  0  0  0  0  0  0  0  0
    0.0000    0.0000    0.0000 H   0  0  0  0  0  0  0  0  0  0  0  0
    0.0000    0.0000    0.0000 H   0  0  0  0  0  0  0  0  0  0  0  0
    0.0000    0.0000    0.0000 H   0  0  0  0  0  0  0  0  0  0  0  0
   12.4704    5.2913    9.1056 N   0  0  0  0  0  0  0  0  0  0  0  0
   12.7870    4.9310    7.7678 C   0  0  0  0  0  0  0  0  0  0  0  0
   13.9765    5.0231    7.3280 O   0  0  0  0  0  0  0  0  0  0  0  0
   11.7483    4.4482    6.8757 C   0  0  0  0  0  0  0  0  0  0  0  0
   12.0193    4.1078    5.6295 C   0  0  0  0  0  0  0  0  0  0  0  0
   11.4875    5.2136    9.4642 H   0  0  0  0  0  0  0  0  0  0  0  0
   10.7386    4.3608    7.2200 H   0  0  0  0  0  0  0  0  0  0  0  0
   13.0276    4.1929    5.2787 H   0  0  0  0  0  0  0  0  0  0  0  0
   11.2506    3.7482    4.9621 H   0  0  0  0  0  0  0  0  0  0  0  0
  1  3  2  0
  1  4  1  0
  1  5  1  0
  2  4  1  0
  2  6  1  0
  4  9  1  0
  4 15  1  0
  5  6  1  0
  5  8  1  0
  6  7  2  3
  9 10  2  0
  9 14  1  0
 10 11  1  0
 11 12  2  0
 12 13  1  0
 13 14  2  0
 15 16  2  0
 15 20  1  0
 16 17  1  0
 17 18  2  0
 18 19  1  0
 19 20  2  0
  2 21  1  0
  7 22  1  0
  8 23  1  0
  8 24  1  0
  8 25  1  0
 10 26  1  0
 11 27  1  0
 12 28  1  0
 13 29  1  0
 14 30  1  0
 16 31  1  0
 17 32  1  0
 19 33  1  0
 20 34  1  0
 35 36  1  0
 36 37  2  0
 36 38  1  0
 38 39  2  3
 35 40  1  0
 38 41  1  0
 39 42  1  0
 39 43  1  0
 18 35  1  0
M  END
>  <attachment_point>  (322) 
32

>  <score>  (322) 
<NA>

$$$$
4djw
     RDKit          3D

 44 47  0  0  0  0  0  0  0  0999 V2000
   22.4950   11.8750   22.5810 C   0  0  0  0  0  0  0  0  0  0  0  0
   22.5380    9.4930   22.4640 N   0  0  0  0  0  0  0  0  0  0  0  0
   22.3600   13.0630   22.3480 O   0  0  0  0  0  0  0  0  0  0  0  0
   22.3390   10.6680   21.5610 C   0  0  0  0  0  0  0  0  0  0  0  0
   22.7860   11.3350   23.8120 N   0  0  0  0  0  0  0  0  0  0  0  0
   22.7800    9.9140   23.7010 C   0  0  0  0  0  0  0  0  0  0  0  0
   22.9970    9.1110   24.7490 N   0  0  0  0  0  0  0  0  0  0  0  0
   23.0220   12.1410   25.0180 C   0  0  0  0  0  0  0  0  0  0  0  0
   20.9020   10.6270   21.0050 C   0  0  0  0  0  0  0  0  0  0  0  0
   20.2720    9.4140   20.7470 C   0  0  0  0  0  0  0  0  0  0  0  0
   18.9690    9.3760   20.2600 C   0  0  0  0  0  0  0  0  0  0  0  0
   18.2800   10.5440   20.0210 C   0  0  0  0  0  0  0  0  0  0  0  0
   18.8920   11.7530   20.2590 C   0  0  0  0  0  0  0  0  0  0  0  0
   20.1950   11.7970   20.7440 C   0  0  0  0  0  0  0  0  0  0  0  0
   23.4880   10.6920   20.5300 C   0  0  0  0  0  0  0  0  0  0  0  0
   23.2110   10.7890   19.1730 C   0  0  0  0  0  0  0  0  0  0  0  0
   24.2350   10.8650   18.2430 C   0  0  0  0  0  0  0  0  0  0  0  0
   25.5500   10.8410   18.6560 C   0  0  0  0  0  0  0  0  0  0  0  0
   25.8710   10.7460   20.0070 C   0  0  0  0  0  0  0  0  0  0  0  0
   24.8260   10.6610   20.9430 C   0  0  0  0  0  0  0  0  0  0  0  0
    0.0000    0.0000    0.0000 H   0  0  0  0  0  0  0  0  0  0  0  0
    0.0000    0.0000    0.0000 H   0  0  0  0  0  0  0  0  0  0  0  0
    0.0000    0.0000    0.0000 H   0  0  0  0  0  0  0  0  0  0  0  0
    0.0000    0.0000    0.0000 H   0  0  0  0  0  0  0  0  0  0  0  0
    0.0000    0.0000    0.0000 H   0  0  0  0  0  0  0  0  0  0  0  0
    0.0000    0.0000    0.0000 H   0  0  0  0  0  0  0  0  0  0  0  0
    0.0000    0.0000    0.0000 H   0  0  0  0  0  0  0  0  0  0  0  0
    0.0000    0.0000    0.0000 H   0  0  0  0  0  0  0  0  0  0  0  0
    0.0000    0.0000    0.0000 H   0  0  0  0  0  0  0  0  0  0  0  0
    0.0000    0.0000    0.0000 H   0  0  0  0  0  0  0  0  0  0  0  0
    0.0000    0.0000    0.0000 H   0  0  0  0  0  0  0  0  0  0  0  0
    0.0000    0.0000    0.0000 H   0  0  0  0  0  0  0  0  0  0  0  0
    0.0000    0.0000    0.0000 H   0  0  0  0  0  0  0  0  0  0  0  0
    0.0000    0.0000    0.0000 H   0  0  0  0  0  0  0  0  0  0  0  0
   12.4667    5.2897    9.1029 N   0  0  0  0  0  0  0  0  0  0  0  0
   12.0993    6.2294    8.0378 C   0  0  0  0  0  0  0  0  0  0  0  0
   11.9135    5.0047    7.1584 C   0  0  0  0  0  0  0  0  0  0  0  0
   13.0052    4.4340    8.0389 C   0  0  0  0  0  0  0  0  0  0  0  0
   11.2129    6.8277    8.2282 H   0  0  0  0  0  0  0  0  0  0  0  0
   13.0225    6.7688    7.7249 H   0  0  0  0  0  0  0  0  0  0  0  0
   12.1962    5.2484    6.1309 H   0  0  0  0  0  0  0  0  0  0  0  0
   10.9777    4.4542    7.3043 H   0  0  0  0  0  0  0  0  0  0  0  0
   14.0334    4.7436    7.7575 H   0  0  0  0  0  0  0  0  0  0  0  0
   12.9113    3.3853    8.3159 H   0  0  0  0  0  0  0  0  0  0  0  0
  1  3  2  0
  1  4  1  0
  1  5  1  0
  2  4  1  0
  2  6  1  0
  4  9  1  0
  4 15  1  0
  5  6  1  0
  5  8  1  0
  6  7  2  3
  9 10  2  0
  9 14  1  0
 10 11  1  0
 11 12  2  0
 12 13  1  0
 13 14  2  0
 15 16  2  0
 15 20  1  0
 16 17  1  0
 17 18  2  0
 18 19  1  0
 19 20  2  0
  2 21  1  0
  7 22  1  0
  8 23  1  0
  8 24  1  0
  8 25  1  0
 10 26  1  0
 11 27  1  0
 12 28  1  0
 13 29  1  0
 14 30  1  0
 16 31  1  0
 17 32  1  0
 19 33  1  0
 20 34  1  0
 35 36  1  0
 36 37  1  0
 37 38  1  0
 38 35  1  0
 36 39  1  0
 36 40  1  0
 37 41  1  0
 37 42  1  0
 38 43  1  0
 38 44  1  0
 18 35  1  0
M  END
>  <attachment_point>  (323) 
32

>  <score>  (323) 
<NA>

$$$$
4djw
     RDKit          3D

 51 54  0  0  0  0  0  0  0  0999 V2000
   22.4950   11.8750   22.5810 C   0  0  0  0  0  0  0  0  0  0  0  0
   22.5380    9.4930   22.4640 N   0  0  0  0  0  0  0  0  0  0  0  0
   22.3600   13.0630   22.3480 O   0  0  0  0  0  0  0  0  0  0  0  0
   22.3390   10.6680   21.5610 C   0  0  0  0  0  0  0  0  0  0  0  0
   22.7860   11.3350   23.8120 N   0  0  0  0  0  0  0  0  0  0  0  0
   22.7800    9.9140   23.7010 C   0  0  0  0  0  0  0  0  0  0  0  0
   22.9970    9.1110   24.7490 N   0  0  0  0  0  0  0  0  0  0  0  0
   23.0220   12.1410   25.0180 C   0  0  0  0  0  0  0  0  0  0  0  0
   20.9020   10.6270   21.0050 C   0  0  0  0  0  0  0  0  0  0  0  0
   20.2720    9.4140   20.7470 C   0  0  0  0  0  0  0  0  0  0  0  0
   18.9690    9.3760   20.2600 C   0  0  0  0  0  0  0  0  0  0  0  0
   18.2800   10.5440   20.0210 C   0  0  0  0  0  0  0  0  0  0  0  0
   18.8920   11.7530   20.2590 C   0  0  0  0  0  0  0  0  0  0  0  0
   20.1950   11.7970   20.7440 C   0  0  0  0  0  0  0  0  0  0  0  0
   23.4880   10.6920   20.5300 C   0  0  0  0  0  0  0  0  0  0  0  0
   23.2110   10.7890   19.1730 C   0  0  0  0  0  0  0  0  0  0  0  0
   24.2350   10.8650   18.2430 C   0  0  0  0  0  0  0  0  0  0  0  0
   25.5500   10.8410   18.6560 C   0  0  0  0  0  0  0  0  0  0  0  0
   25.8710   10.7460   20.0070 C   0  0  0  0  0  0  0  0  0  0  0  0
   24.8260   10.6610   20.9430 C   0  0  0  0  0  0  0  0  0  0  0  0
    0.0000    0.0000    0.0000 H   0  0  0  0  0  0  0  0  0  0  0  0
    0.0000    0.0000    0.0000 H   0  0  0  0  0  0  0  0  0  0  0  0
    0.0000    0.0000    0.0000 H   0  0  0  0  0  0  0  0  0  0  0  0
    0.0000    0.0000    0.0000 H   0  0  0  0  0  0  0  0  0  0  0  0
    0.0000    0.0000    0.0000 H   0  0  0  0  0  0  0  0  0  0  0  0
    0.0000    0.0000    0.0000 H   0  0  0  0  0  0  0  0  0  0  0  0
    0.0000    0.0000    0.0000 H   0  0  0  0  0  0  0  0  0  0  0  0
    0.0000    0.0000    0.0000 H   0  0  0  0  0  0  0  0  0  0  0  0
    0.0000    0.0000    0.0000 H   0  0  0  0  0  0  0  0  0  0  0  0
    0.0000    0.0000    0.0000 H   0  0  0  0  0  0  0  0  0  0  0  0
    0.0000    0.0000    0.0000 H   0  0  0  0  0  0  0  0  0  0  0  0
    0.0000    0.0000    0.0000 H   0  0  0  0  0  0  0  0  0  0  0  0
    0.0000    0.0000    0.0000 H   0  0  0  0  0  0  0  0  0  0  0  0
    0.0000    0.0000    0.0000 H   0  0  0  0  0  0  0  0  0  0  0  0
   12.2835    5.2120    8.9691 C   0  0  0  0  0  0  0  0  0  0  0  0
   12.6495    6.0790    7.8679 C   0  0  0  0  0  0  0  0  0  0  0  0
   13.5112    5.7133    6.8514 C   0  0  0  0  0  0  0  0  0  0  0  0
   13.8338    6.5689    5.8206 C   0  0  0  0  0  0  0  0  0  0  0  0
   13.3082    7.8378    5.7557 C   0  0  0  0  0  0  0  0  0  0  0  0
   13.6492    8.7810    4.6410 C   0  0  0  0  0  0  0  0  0  0  0  0
   12.4409    8.2154    6.7727 C   0  0  0  0  0  0  0  0  0  0  0  0
   12.1237    7.3517    7.8006 C   0  0  0  0  0  0  0  0  0  0  0  0
   11.7044    5.6181    9.7659 H   0  0  0  0  0  0  0  0  0  0  0  0
   12.7814    4.2734    9.0709 H   0  0  0  0  0  0  0  0  0  0  0  0
   13.9191    4.7116    6.9128 H   0  0  0  0  0  0  0  0  0  0  0  0
   14.5072    6.2351    5.0578 H   0  0  0  0  0  0  0  0  0  0  0  0
   13.3910    9.8193    4.9607 H   0  0  0  0  0  0  0  0  0  0  0  0
   14.7521    8.7759    4.4409 H   0  0  0  0  0  0  0  0  0  0  0  0
   13.1016    8.4579    3.7492 H   0  0  0  0  0  0  0  0  0  0  0  0
   12.0380    9.2170    6.7039 H   0  0  0  0  0  0  0  0  0  0  0  0
   11.4423    7.7083    8.5603 H   0  0  0  0  0  0  0  0  0  0  0  0
  1  3  2  0
  1  4  1  0
  1  5  1  0
  2  4  1  0
  2  6  1  0
  4  9  1  0
  4 15  1  0
  5  6  1  0
  5  8  1  0
  6  7  2  3
  9 10  2  0
  9 14  1  0
 10 11  1  0
 11 12  2  0
 12 13  1  0
 13 14  2  0
 15 16  2  0
 15 20  1  0
 16 17  1  0
 17 18  2  0
 18 19  1  0
 19 20  2  0
  2 21  1  0
  7 22  1  0
  8 23  1  0
  8 24  1  0
  8 25  1  0
 10 26  1  0
 11 27  1  0
 12 28  1  0
 13 29  1  0
 14 30  1  0
 16 31  1  0
 17 32  1  0
 19 33  1  0
 20 34  1  0
 35 36  1  0
 36 37  2  0
 37 38  1  0
 38 39  2  0
 39 40  1  0
 39 41  1  0
 41 42  2  0
 42 36  1  0
 35 43  1  0
 35 44  1  0
 37 45  1  0
 38 46  1  0
 40 47  1  0
 40 48  1  0
 40 49  1  0
 41 50  1  0
 42 51  1  0
 18 35  1  0
M  END
>  <attachment_point>  (324) 
32

>  <score>  (324) 
<NA>

$$$$
4djw
     RDKit          3D

 49 52  0  0  0  0  0  0  0  0999 V2000
   22.4950   11.8750   22.5810 C   0  0  0  0  0  0  0  0  0  0  0  0
   22.5380    9.4930   22.4640 N   0  0  0  0  0  0  0  0  0  0  0  0
   22.3600   13.0630   22.3480 O   0  0  0  0  0  0  0  0  0  0  0  0
   22.3390   10.6680   21.5610 C   0  0  0  0  0  0  0  0  0  0  0  0
   22.7860   11.3350   23.8120 N   0  0  0  0  0  0  0  0  0  0  0  0
   22.7800    9.9140   23.7010 C   0  0  0  0  0  0  0  0  0  0  0  0
   22.9970    9.1110   24.7490 N   0  0  0  0  0  0  0  0  0  0  0  0
   23.0220   12.1410   25.0180 C   0  0  0  0  0  0  0  0  0  0  0  0
   20.9020   10.6270   21.0050 C   0  0  0  0  0  0  0  0  0  0  0  0
   20.2720    9.4140   20.7470 C   0  0  0  0  0  0  0  0  0  0  0  0
   18.9690    9.3760   20.2600 C   0  0  0  0  0  0  0  0  0  0  0  0
   18.2800   10.5440   20.0210 C   0  0  0  0  0  0  0  0  0  0  0  0
   18.8920   11.7530   20.2590 C   0  0  0  0  0  0  0  0  0  0  0  0
   20.1950   11.7970   20.7440 C   0  0  0  0  0  0  0  0  0  0  0  0
   23.4880   10.6920   20.5300 C   0  0  0  0  0  0  0  0  0  0  0  0
   23.2110   10.7890   19.1730 C   0  0  0  0  0  0  0  0  0  0  0  0
   24.2350   10.8650   18.2430 C   0  0  0  0  0  0  0  0  0  0  0  0
   25.5500   10.8410   18.6560 C   0  0  0  0  0  0  0  0  0  0  0  0
   25.8710   10.7460   20.0070 C   0  0  0  0  0  0  0  0  0  0  0  0
   24.8260   10.6610   20.9430 C   0  0  0  0  0  0  0  0  0  0  0  0
    0.0000    0.0000    0.0000 H   0  0  0  0  0  0  0  0  0  0  0  0
    0.0000    0.0000    0.0000 H   0  0  0  0  0  0  0  0  0  0  0  0
    0.0000    0.0000    0.0000 H   0  0  0  0  0  0  0  0  0  0  0  0
    0.0000    0.0000    0.0000 H   0  0  0  0  0  0  0  0  0  0  0  0
    0.0000    0.0000    0.0000 H   0  0  0  0  0  0  0  0  0  0  0  0
    0.0000    0.0000    0.0000 H   0  0  0  0  0  0  0  0  0  0  0  0
    0.0000    0.0000    0.0000 H   0  0  0  0  0  0  0  0  0  0  0  0
    0.0000    0.0000    0.0000 H   0  0  0  0  0  0  0  0  0  0  0  0
    0.0000    0.0000    0.0000 H   0  0  0  0  0  0  0  0  0  0  0  0
    0.0000    0.0000    0.0000 H   0  0  0  0  0  0  0  0  0  0  0  0
    0.0000    0.0000    0.0000 H   0  0  0  0  0  0  0  0  0  0  0  0
    0.0000    0.0000    0.0000 H   0  0  0  0  0  0  0  0  0  0  0  0
    0.0000    0.0000    0.0000 H   0  0  0  0  0  0  0  0  0  0  0  0
    0.0000    0.0000    0.0000 H   0  0  0  0  0  0  0  0  0  0  0  0
   12.4278    5.2732    9.0745 C   0  0  0  0  0  0  0  0  0  0  0  0
   11.3230    4.6967    9.6501 C   0  0  0  0  0  0  0  0  0  0  0  0
   10.2994    4.2692    8.8154 C   0  0  0  0  0  0  0  0  0  0  0  0
   10.3533    4.4019    7.4474 C   0  0  0  0  0  0  0  0  0  0  0  0
    9.2061    3.9118    6.6543 C   0  0  0  0  0  0  0  0  0  0  0  0
    9.3526    2.5893    6.2836 O   0  0  0  0  0  0  0  0  0  0  0  0
   11.4659    4.9819    6.8752 C   0  0  0  0  0  0  0  0  0  0  0  0
   12.4870    5.4072    7.7225 C   0  0  0  0  0  0  0  0  0  0  0  0
   11.2453    4.5771   10.7038 H   0  0  0  0  0  0  0  0  0  0  0  0
    9.4394    3.8159    9.3223 H   0  0  0  0  0  0  0  0  0  0  0  0
    8.2737    4.0770    7.2685 H   0  0  0  0  0  0  0  0  0  0  0  0
    9.1064    4.5554    5.7727 H   0  0  0  0  0  0  0  0  0  0  0  0
    9.0440    2.5021    5.3464 H   0  0  0  0  0  0  0  0  0  0  0  0
   11.5294    5.0968    5.7945 H   0  0  0  0  0  0  0  0  0  0  0  0
   13.3480    5.8580    7.2546 H   0  0  0  0  0  0  0  0  0  0  0  0
  1  3  2  0
  1  4  1  0
  1  5  1  0
  2  4  1  0
  2  6  1  0
  4  9  1  0
  4 15  1  0
  5  6  1  0
  5  8  1  0
  6  7  2  3
  9 10  2  0
  9 14  1  0
 10 11  1  0
 11 12  2  0
 12 13  1  0
 13 14  2  0
 15 16  2  0
 15 20  1  0
 16 17  1  0
 17 18  2  0
 18 19  1  0
 19 20  2  0
  2 21  1  0
  7 22  1  0
  8 23  1  0
  8 24  1  0
  8 25  1  0
 10 26  1  0
 11 27  1  0
 12 28  1  0
 13 29  1  0
 14 30  1  0
 16 31  1  0
 17 32  1  0
 19 33  1  0
 20 34  1  0
 35 36  2  0
 36 37  1  0
 37 38  2  0
 38 39  1  0
 39 40  1  0
 38 41  1  0
 41 42  2  0
 42 35  1  0
 36 43  1  0
 37 44  1  0
 39 45  1  0
 39 46  1  0
 40 47  1  0
 41 48  1  0
 42 49  1  0
 18 35  1  0
M  END
>  <attachment_point>  (325) 
32

>  <score>  (325) 
<NA>

$$$$
4djw
     RDKit          3D

 54 57  0  0  0  0  0  0  0  0999 V2000
   22.4950   11.8750   22.5810 C   0  0  0  0  0  0  0  0  0  0  0  0
   22.5380    9.4930   22.4640 N   0  0  0  0  0  0  0  0  0  0  0  0
   22.3600   13.0630   22.3480 O   0  0  0  0  0  0  0  0  0  0  0  0
   22.3390   10.6680   21.5610 C   0  0  0  0  0  0  0  0  0  0  0  0
   22.7860   11.3350   23.8120 N   0  0  0  0  0  0  0  0  0  0  0  0
   22.7800    9.9140   23.7010 C   0  0  0  0  0  0  0  0  0  0  0  0
   22.9970    9.1110   24.7490 N   0  0  0  0  0  0  0  0  0  0  0  0
   23.0220   12.1410   25.0180 C   0  0  0  0  0  0  0  0  0  0  0  0
   20.9020   10.6270   21.0050 C   0  0  0  0  0  0  0  0  0  0  0  0
   20.2720    9.4140   20.7470 C   0  0  0  0  0  0  0  0  0  0  0  0
   18.9690    9.3760   20.2600 C   0  0  0  0  0  0  0  0  0  0  0  0
   18.2800   10.5440   20.0210 C   0  0  0  0  0  0  0  0  0  0  0  0
   18.8920   11.7530   20.2590 C   0  0  0  0  0  0  0  0  0  0  0  0
   20.1950   11.7970   20.7440 C   0  0  0  0  0  0  0  0  0  0  0  0
   23.4880   10.6920   20.5300 C   0  0  0  0  0  0  0  0  0  0  0  0
   23.2110   10.7890   19.1730 C   0  0  0  0  0  0  0  0  0  0  0  0
   24.2350   10.8650   18.2430 C   0  0  0  0  0  0  0  0  0  0  0  0
   25.5500   10.8410   18.6560 C   0  0  0  0  0  0  0  0  0  0  0  0
   25.8710   10.7460   20.0070 C   0  0  0  0  0  0  0  0  0  0  0  0
   24.8260   10.6610   20.9430 C   0  0  0  0  0  0  0  0  0  0  0  0
    0.0000    0.0000    0.0000 H   0  0  0  0  0  0  0  0  0  0  0  0
    0.0000    0.0000    0.0000 H   0  0  0  0  0  0  0  0  0  0  0  0
    0.0000    0.0000    0.0000 H   0  0  0  0  0  0  0  0  0  0  0  0
    0.0000    0.0000    0.0000 H   0  0  0  0  0  0  0  0  0  0  0  0
    0.0000    0.0000    0.0000 H   0  0  0  0  0  0  0  0  0  0  0  0
    0.0000    0.0000    0.0000 H   0  0  0  0  0  0  0  0  0  0  0  0
    0.0000    0.0000    0.0000 H   0  0  0  0  0  0  0  0  0  0  0  0
    0.0000    0.0000    0.0000 H   0  0  0  0  0  0  0  0  0  0  0  0
    0.0000    0.0000    0.0000 H   0  0  0  0  0  0  0  0  0  0  0  0
    0.0000    0.0000    0.0000 H   0  0  0  0  0  0  0  0  0  0  0  0
    0.0000    0.0000    0.0000 H   0  0  0  0  0  0  0  0  0  0  0  0
    0.0000    0.0000    0.0000 H   0  0  0  0  0  0  0  0  0  0  0  0
    0.0000    0.0000    0.0000 H   0  0  0  0  0  0  0  0  0  0  0  0
    0.0000    0.0000    0.0000 H   0  0  0  0  0  0  0  0  0  0  0  0
   12.4103    5.2658    9.0617 O   0  0  0  0  0  0  0  0  0  0  0  0
   13.1037    4.3841    8.2594 C   0  0  0  0  0  0  0  0  0  0  0  0
   12.9504    4.8891    6.8250 C   0  0  0  0  0  0  0  0  0  0  0  0
   13.5545    3.9107    5.8658 C   0  0  0  0  0  0  0  0  0  0  0  0
   13.6912    2.5932    6.3848 N   0  0  0  0  0  0  0  0  0  0  0  0
   13.9890    1.6852    5.3197 C   0  0  0  0  0  0  0  0  0  0  0  0
   12.6070    2.1526    7.2163 C   0  0  0  0  0  0  0  0  0  0  0  0
   12.4228    3.0403    8.3986 C   0  0  0  0  0  0  0  0  0  0  0  0
   14.1553    4.3633    8.5078 H   0  0  0  0  0  0  0  0  0  0  0  0
   13.4749    5.8874    6.8085 H   0  0  0  0  0  0  0  0  0  0  0  0
   11.8652    5.0402    6.6645 H   0  0  0  0  0  0  0  0  0  0  0  0
   14.5847    4.2906    5.6232 H   0  0  0  0  0  0  0  0  0  0  0  0
   13.0085    3.9495    4.8782 H   0  0  0  0  0  0  0  0  0  0  0  0
   15.0611    1.7897    5.0456 H   0  0  0  0  0  0  0  0  0  0  0  0
   13.4190    1.9159    4.3931 H   0  0  0  0  0  0  0  0  0  0  0  0
   13.7709    0.6256    5.5616 H   0  0  0  0  0  0  0  0  0  0  0  0
   12.8903    1.1375    7.6022 H   0  0  0  0  0  0  0  0  0  0  0  0
   11.6557    1.9938    6.6589 H   0  0  0  0  0  0  0  0  0  0  0  0
   11.3446    3.2074    8.5812 H   0  0  0  0  0  0  0  0  0  0  0  0
   12.8201    2.5916    9.3477 H   0  0  0  0  0  0  0  0  0  0  0  0
  1  3  2  0
  1  4  1  0
  1  5  1  0
  2  4  1  0
  2  6  1  0
  4  9  1  0
  4 15  1  0
  5  6  1  0
  5  8  1  0
  6  7  2  3
  9 10  2  0
  9 14  1  0
 10 11  1  0
 11 12  2  0
 12 13  1  0
 13 14  2  0
 15 16  2  0
 15 20  1  0
 16 17  1  0
 17 18  2  0
 18 19  1  0
 19 20  2  0
  2 21  1  0
  7 22  1  0
  8 23  1  0
  8 24  1  0
  8 25  1  0
 10 26  1  0
 11 27  1  0
 12 28  1  0
 13 29  1  0
 14 30  1  0
 16 31  1  0
 17 32  1  0
 19 33  1  0
 20 34  1  0
 35 36  1  0
 36 37  1  0
 37 38  1  0
 38 39  1  0
 39 40  1  0
 39 41  1  0
 41 42  1  0
 42 36  1  0
 36 43  1  0
 37 44  1  0
 37 45  1  0
 38 46  1  0
 38 47  1  0
 40 48  1  0
 40 49  1  0
 40 50  1  0
 41 51  1  0
 41 52  1  0
 42 53  1  0
 42 54  1  0
 18 35  1  0
M  END
>  <attachment_point>  (326) 
32

>  <score>  (326) 
<NA>

$$$$
4djw
     RDKit          3D

 51 54  0  0  0  0  0  0  0  0999 V2000
   22.4950   11.8750   22.5810 C   0  0  0  0  0  0  0  0  0  0  0  0
   22.5380    9.4930   22.4640 N   0  0  0  0  0  0  0  0  0  0  0  0
   22.3600   13.0630   22.3480 O   0  0  0  0  0  0  0  0  0  0  0  0
   22.3390   10.6680   21.5610 C   0  0  0  0  0  0  0  0  0  0  0  0
   22.7860   11.3350   23.8120 N   0  0  0  0  0  0  0  0  0  0  0  0
   22.7800    9.9140   23.7010 C   0  0  0  0  0  0  0  0  0  0  0  0
   22.9970    9.1110   24.7490 N   0  0  0  0  0  0  0  0  0  0  0  0
   23.0220   12.1410   25.0180 C   0  0  0  0  0  0  0  0  0  0  0  0
   20.9020   10.6270   21.0050 C   0  0  0  0  0  0  0  0  0  0  0  0
   20.2720    9.4140   20.7470 C   0  0  0  0  0  0  0  0  0  0  0  0
   18.9690    9.3760   20.2600 C   0  0  0  0  0  0  0  0  0  0  0  0
   18.2800   10.5440   20.0210 C   0  0  0  0  0  0  0  0  0  0  0  0
   18.8920   11.7530   20.2590 C   0  0  0  0  0  0  0  0  0  0  0  0
   20.1950   11.7970   20.7440 C   0  0  0  0  0  0  0  0  0  0  0  0
   23.4880   10.6920   20.5300 C   0  0  0  0  0  0  0  0  0  0  0  0
   23.2110   10.7890   19.1730 C   0  0  0  0  0  0  0  0  0  0  0  0
   24.2350   10.8650   18.2430 C   0  0  0  0  0  0  0  0  0  0  0  0
   25.5500   10.8410   18.6560 C   0  0  0  0  0  0  0  0  0  0  0  0
   25.8710   10.7460   20.0070 C   0  0  0  0  0  0  0  0  0  0  0  0
   24.8260   10.6610   20.9430 C   0  0  0  0  0  0  0  0  0  0  0  0
    0.0000    0.0000    0.0000 H   0  0  0  0  0  0  0  0  0  0  0  0
    0.0000    0.0000    0.0000 H   0  0  0  0  0  0  0  0  0  0  0  0
    0.0000    0.0000    0.0000 H   0  0  0  0  0  0  0  0  0  0  0  0
    0.0000    0.0000    0.0000 H   0  0  0  0  0  0  0  0  0  0  0  0
    0.0000    0.0000    0.0000 H   0  0  0  0  0  0  0  0  0  0  0  0
    0.0000    0.0000    0.0000 H   0  0  0  0  0  0  0  0  0  0  0  0
    0.0000    0.0000    0.0000 H   0  0  0  0  0  0  0  0  0  0  0  0
    0.0000    0.0000    0.0000 H   0  0  0  0  0  0  0  0  0  0  0  0
    0.0000    0.0000    0.0000 H   0  0  0  0  0  0  0  0  0  0  0  0
    0.0000    0.0000    0.0000 H   0  0  0  0  0  0  0  0  0  0  0  0
    0.0000    0.0000    0.0000 H   0  0  0  0  0  0  0  0  0  0  0  0
    0.0000    0.0000    0.0000 H   0  0  0  0  0  0  0  0  0  0  0  0
    0.0000    0.0000    0.0000 H   0  0  0  0  0  0  0  0  0  0  0  0
    0.0000    0.0000    0.0000 H   0  0  0  0  0  0  0  0  0  0  0  0
   12.4484    5.2819    9.0895 S   0  0  0  0  0  6  0  0  0  0  0  0
   11.2142    6.1264    9.3087 O   0  0  0  0  0  0  0  0  0  0  0  0
   12.0859    3.8831    9.5720 O   0  0  0  0  0  0  0  0  0  0  0  0
   12.8181    5.1459    7.4296 N   0  0  0  0  0  0  0  0  0  0  0  0
   13.1850    6.3757    6.7990 C   0  0  0  0  0  0  0  0  0  0  0  0
   13.7930    6.0500    5.4539 C   0  0  0  0  0  0  0  0  0  0  0  0
   13.4063    4.8451    4.9421 O   0  0  0  0  0  0  0  0  0  0  0  0
   12.1239    4.4586    5.2436 C   0  0  0  0  0  0  0  0  0  0  0  0
   11.8356    4.3834    6.7187 C   0  0  0  0  0  0  0  0  0  0  0  0
   12.3424    7.0558    6.6219 H   0  0  0  0  0  0  0  0  0  0  0  0
   13.8914    6.9033    7.4737 H   0  0  0  0  0  0  0  0  0  0  0  0
   13.6575    6.8914    4.7576 H   0  0  0  0  0  0  0  0  0  0  0  0
   14.9058    5.9889    5.6357 H   0  0  0  0  0  0  0  0  0  0  0  0
   11.9750    3.4397    4.8048 H   0  0  0  0  0  0  0  0  0  0  0  0
   11.3571    5.1005    4.7529 H   0  0  0  0  0  0  0  0  0  0  0  0
   10.8275    4.7435    6.9766 H   0  0  0  0  0  0  0  0  0  0  0  0
   11.9477    3.3308    7.0567 H   0  0  0  0  0  0  0  0  0  0  0  0
  1  3  2  0
  1  4  1  0
  1  5  1  0
  2  4  1  0
  2  6  1  0
  4  9  1  0
  4 15  1  0
  5  6  1  0
  5  8  1  0
  6  7  2  3
  9 10  2  0
  9 14  1  0
 10 11  1  0
 11 12  2  0
 12 13  1  0
 13 14  2  0
 15 16  2  0
 15 20  1  0
 16 17  1  0
 17 18  2  0
 18 19  1  0
 19 20  2  0
  2 21  1  0
  7 22  1  0
  8 23  1  0
  8 24  1  0
  8 25  1  0
 10 26  1  0
 11 27  1  0
 12 28  1  0
 13 29  1  0
 14 30  1  0
 16 31  1  0
 17 32  1  0
 19 33  1  0
 20 34  1  0
 35 36  2  0
 35 37  2  0
 35 38  1  0
 38 39  1  0
 39 40  1  0
 40 41  1  0
 41 42  1  0
 42 43  1  0
 43 38  1  0
 39 44  1  0
 39 45  1  0
 40 46  1  0
 40 47  1  0
 42 48  1  0
 42 49  1  0
 43 50  1  0
 43 51  1  0
 18 35  1  0
M  END
>  <attachment_point>  (327) 
32

>  <score>  (327) 
<NA>

$$$$
4djw
     RDKit          3D

 45 48  0  0  0  0  0  0  0  0999 V2000
   22.4950   11.8750   22.5810 C   0  0  0  0  0  0  0  0  0  0  0  0
   22.5380    9.4930   22.4640 N   0  0  0  0  0  0  0  0  0  0  0  0
   22.3600   13.0630   22.3480 O   0  0  0  0  0  0  0  0  0  0  0  0
   22.3390   10.6680   21.5610 C   0  0  0  0  0  0  0  0  0  0  0  0
   22.7860   11.3350   23.8120 N   0  0  0  0  0  0  0  0  0  0  0  0
   22.7800    9.9140   23.7010 C   0  0  0  0  0  0  0  0  0  0  0  0
   22.9970    9.1110   24.7490 N   0  0  0  0  0  0  0  0  0  0  0  0
   23.0220   12.1410   25.0180 C   0  0  0  0  0  0  0  0  0  0  0  0
   20.9020   10.6270   21.0050 C   0  0  0  0  0  0  0  0  0  0  0  0
   20.2720    9.4140   20.7470 C   0  0  0  0  0  0  0  0  0  0  0  0
   18.9690    9.3760   20.2600 C   0  0  0  0  0  0  0  0  0  0  0  0
   18.2800   10.5440   20.0210 C   0  0  0  0  0  0  0  0  0  0  0  0
   18.8920   11.7530   20.2590 C   0  0  0  0  0  0  0  0  0  0  0  0
   20.1950   11.7970   20.7440 C   0  0  0  0  0  0  0  0  0  0  0  0
   23.4880   10.6920   20.5300 C   0  0  0  0  0  0  0  0  0  0  0  0
   23.2110   10.7890   19.1730 C   0  0  0  0  0  0  0  0  0  0  0  0
   24.2350   10.8650   18.2430 C   0  0  0  0  0  0  0  0  0  0  0  0
   25.5500   10.8410   18.6560 C   0  0  0  0  0  0  0  0  0  0  0  0
   25.8710   10.7460   20.0070 C   0  0  0  0  0  0  0  0  0  0  0  0
   24.8260   10.6610   20.9430 C   0  0  0  0  0  0  0  0  0  0  0  0
    0.0000    0.0000    0.0000 H   0  0  0  0  0  0  0  0  0  0  0  0
    0.0000    0.0000    0.0000 H   0  0  0  0  0  0  0  0  0  0  0  0
    0.0000    0.0000    0.0000 H   0  0  0  0  0  0  0  0  0  0  0  0
    0.0000    0.0000    0.0000 H   0  0  0  0  0  0  0  0  0  0  0  0
    0.0000    0.0000    0.0000 H   0  0  0  0  0  0  0  0  0  0  0  0
    0.0000    0.0000    0.0000 H   0  0  0  0  0  0  0  0  0  0  0  0
    0.0000    0.0000    0.0000 H   0  0  0  0  0  0  0  0  0  0  0  0
    0.0000    0.0000    0.0000 H   0  0  0  0  0  0  0  0  0  0  0  0
    0.0000    0.0000    0.0000 H   0  0  0  0  0  0  0  0  0  0  0  0
    0.0000    0.0000    0.0000 H   0  0  0  0  0  0  0  0  0  0  0  0
    0.0000    0.0000    0.0000 H   0  0  0  0  0  0  0  0  0  0  0  0
    0.0000    0.0000    0.0000 H   0  0  0  0  0  0  0  0  0  0  0  0
    0.0000    0.0000    0.0000 H   0  0  0  0  0  0  0  0  0  0  0  0
    0.0000    0.0000    0.0000 H   0  0  0  0  0  0  0  0  0  0  0  0
   12.4264    5.2726    9.0734 C   0  0  0  0  0  0  0  0  0  0  0  0
   13.0346    4.3754    8.0611 C   0  0  0  0  0  0  0  0  0  0  0  0
   13.2577    3.0181    8.1376 C   0  0  0  0  0  0  0  0  0  0  0  0
   13.8272    2.6393    6.9889 N   0  0  0  0  0  0  0  0  0  0  0  0
   13.9554    3.7274    6.2191 C   0  0  0  0  0  0  0  0  0  0  0  0
   13.4704    4.8090    6.8668 N   0  0  0  0  0  0  0  0  0  0  0  0
   11.8043    4.7218    9.8044 H   0  0  0  0  0  0  0  0  0  0  0  0
   11.9256    6.1433    8.6317 H   0  0  0  0  0  0  0  0  0  0  0  0
   12.9969    2.4002    9.0086 H   0  0  0  0  0  0  0  0  0  0  0  0
   14.1237    1.6889    6.7191 H   0  0  0  0  0  0  0  0  0  0  0  0
   14.3710    3.8149    5.2222 H   0  0  0  0  0  0  0  0  0  0  0  0
  1  3  2  0
  1  4  1  0
  1  5  1  0
  2  4  1  0
  2  6  1  0
  4  9  1  0
  4 15  1  0
  5  6  1  0
  5  8  1  0
  6  7  2  3
  9 10  2  0
  9 14  1  0
 10 11  1  0
 11 12  2  0
 12 13  1  0
 13 14  2  0
 15 16  2  0
 15 20  1  0
 16 17  1  0
 17 18  2  0
 18 19  1  0
 19 20  2  0
  2 21  1  0
  7 22  1  0
  8 23  1  0
  8 24  1  0
  8 25  1  0
 10 26  1  0
 11 27  1  0
 12 28  1  0
 13 29  1  0
 14 30  1  0
 16 31  1  0
 17 32  1  0
 19 33  1  0
 20 34  1  0
 35 36  1  0
 36 37  2  0
 37 38  1  0
 38 39  1  0
 39 40  2  0
 40 36  1  0
 35 41  1  0
 35 42  1  0
 37 43  1  0
 38 44  1  0
 39 45  1  0
 18 35  1  0
M  END
>  <attachment_point>  (328) 
32

>  <score>  (328) 
<NA>

$$$$
4djw
     RDKit          3D

 48 51  0  0  0  0  0  0  0  0999 V2000
   22.4950   11.8750   22.5810 C   0  0  0  0  0  0  0  0  0  0  0  0
   22.5380    9.4930   22.4640 N   0  0  0  0  0  0  0  0  0  0  0  0
   22.3600   13.0630   22.3480 O   0  0  0  0  0  0  0  0  0  0  0  0
   22.3390   10.6680   21.5610 C   0  0  0  0  0  0  0  0  0  0  0  0
   22.7860   11.3350   23.8120 N   0  0  0  0  0  0  0  0  0  0  0  0
   22.7800    9.9140   23.7010 C   0  0  0  0  0  0  0  0  0  0  0  0
   22.9970    9.1110   24.7490 N   0  0  0  0  0  0  0  0  0  0  0  0
   23.0220   12.1410   25.0180 C   0  0  0  0  0  0  0  0  0  0  0  0
   20.9020   10.6270   21.0050 C   0  0  0  0  0  0  0  0  0  0  0  0
   20.2720    9.4140   20.7470 C   0  0  0  0  0  0  0  0  0  0  0  0
   18.9690    9.3760   20.2600 C   0  0  0  0  0  0  0  0  0  0  0  0
   18.2800   10.5440   20.0210 C   0  0  0  0  0  0  0  0  0  0  0  0
   18.8920   11.7530   20.2590 C   0  0  0  0  0  0  0  0  0  0  0  0
   20.1950   11.7970   20.7440 C   0  0  0  0  0  0  0  0  0  0  0  0
   23.4880   10.6920   20.5300 C   0  0  0  0  0  0  0  0  0  0  0  0
   23.2110   10.7890   19.1730 C   0  0  0  0  0  0  0  0  0  0  0  0
   24.2350   10.8650   18.2430 C   0  0  0  0  0  0  0  0  0  0  0  0
   25.5500   10.8410   18.6560 C   0  0  0  0  0  0  0  0  0  0  0  0
   25.8710   10.7460   20.0070 C   0  0  0  0  0  0  0  0  0  0  0  0
   24.8260   10.6610   20.9430 C   0  0  0  0  0  0  0  0  0  0  0  0
    0.0000    0.0000    0.0000 H   0  0  0  0  0  0  0  0  0  0  0  0
    0.0000    0.0000    0.0000 H   0  0  0  0  0  0  0  0  0  0  0  0
    0.0000    0.0000    0.0000 H   0  0  0  0  0  0  0  0  0  0  0  0
    0.0000    0.0000    0.0000 H   0  0  0  0  0  0  0  0  0  0  0  0
    0.0000    0.0000    0.0000 H   0  0  0  0  0  0  0  0  0  0  0  0
    0.0000    0.0000    0.0000 H   0  0  0  0  0  0  0  0  0  0  0  0
    0.0000    0.0000    0.0000 H   0  0  0  0  0  0  0  0  0  0  0  0
    0.0000    0.0000    0.0000 H   0  0  0  0  0  0  0  0  0  0  0  0
    0.0000    0.0000    0.0000 H   0  0  0  0  0  0  0  0  0  0  0  0
    0.0000    0.0000    0.0000 H   0  0  0  0  0  0  0  0  0  0  0  0
    0.0000    0.0000    0.0000 H   0  0  0  0  0  0  0  0  0  0  0  0
    0.0000    0.0000    0.0000 H   0  0  0  0  0  0  0  0  0  0  0  0
    0.0000    0.0000    0.0000 H   0  0  0  0  0  0  0  0  0  0  0  0
    0.0000    0.0000    0.0000 H   0  0  0  0  0  0  0  0  0  0  0  0
   12.4401    5.2784    9.0835 C   0  0  0  0  0  0  0  0  0  0  0  0
   12.6406    4.5887    8.0380 O   0  0  0  0  0  0  0  0  0  0  0  0
   11.0916    5.6003    9.4741 N   0  0  0  0  0  0  0  0  0  0  0  0
   10.0495    5.1222    8.6578 C   0  0  0  0  0  0  0  0  0  0  0  0
    9.5778    5.8942    7.5907 C   0  0  0  0  0  0  0  0  0  0  0  0
    8.5587    5.4267    6.7923 C   0  0  0  0  0  0  0  0  0  0  0  0
    8.0302    4.2203    7.0585 N   0  0  0  0  0  0  0  0  0  0  0  0
    8.4698    3.4553    8.0850 C   0  0  0  0  0  0  0  0  0  0  0  0
    9.4869    3.8911    8.9038 C   0  0  0  0  0  0  0  0  0  0  0  0
   10.9228    6.1684   10.3348 H   0  0  0  0  0  0  0  0  0  0  0  0
   10.0015    6.8539    7.3823 H   0  0  0  0  0  0  0  0  0  0  0  0
    8.1628    6.0068    5.9445 H   0  0  0  0  0  0  0  0  0  0  0  0
    8.0367    2.4792    8.2944 H   0  0  0  0  0  0  0  0  0  0  0  0
    9.8551    3.3039    9.7259 H   0  0  0  0  0  0  0  0  0  0  0  0
  1  3  2  0
  1  4  1  0
  1  5  1  0
  2  4  1  0
  2  6  1  0
  4  9  1  0
  4 15  1  0
  5  6  1  0
  5  8  1  0
  6  7  2  3
  9 10  2  0
  9 14  1  0
 10 11  1  0
 11 12  2  0
 12 13  1  0
 13 14  2  0
 15 16  2  0
 15 20  1  0
 16 17  1  0
 17 18  2  0
 18 19  1  0
 19 20  2  0
  2 21  1  0
  7 22  1  0
  8 23  1  0
  8 24  1  0
  8 25  1  0
 10 26  1  0
 11 27  1  0
 12 28  1  0
 13 29  1  0
 14 30  1  0
 16 31  1  0
 17 32  1  0
 19 33  1  0
 20 34  1  0
 35 36  2  0
 35 37  1  0
 37 38  1  0
 38 39  2  0
 39 40  1  0
 40 41  2  0
 41 42  1  0
 42 43  2  0
 43 38  1  0
 37 44  1  0
 39 45  1  0
 40 46  1  0
 42 47  1  0
 43 48  1  0
 18 35  1  0
M  END
>  <attachment_point>  (329) 
32

>  <score>  (329) 
<NA>

$$$$
4djw
     RDKit          3D

 50 53  0  0  0  0  0  0  0  0999 V2000
   22.4950   11.8750   22.5810 C   0  0  0  0  0  0  0  0  0  0  0  0
   22.5380    9.4930   22.4640 N   0  0  0  0  0  0  0  0  0  0  0  0
   22.3600   13.0630   22.3480 O   0  0  0  0  0  0  0  0  0  0  0  0
   22.3390   10.6680   21.5610 C   0  0  0  0  0  0  0  0  0  0  0  0
   22.7860   11.3350   23.8120 N   0  0  0  0  0  0  0  0  0  0  0  0
   22.7800    9.9140   23.7010 C   0  0  0  0  0  0  0  0  0  0  0  0
   22.9970    9.1110   24.7490 N   0  0  0  0  0  0  0  0  0  0  0  0
   23.0220   12.1410   25.0180 C   0  0  0  0  0  0  0  0  0  0  0  0
   20.9020   10.6270   21.0050 C   0  0  0  0  0  0  0  0  0  0  0  0
   20.2720    9.4140   20.7470 C   0  0  0  0  0  0  0  0  0  0  0  0
   18.9690    9.3760   20.2600 C   0  0  0  0  0  0  0  0  0  0  0  0
   18.2800   10.5440   20.0210 C   0  0  0  0  0  0  0  0  0  0  0  0
   18.8920   11.7530   20.2590 C   0  0  0  0  0  0  0  0  0  0  0  0
   20.1950   11.7970   20.7440 C   0  0  0  0  0  0  0  0  0  0  0  0
   23.4880   10.6920   20.5300 C   0  0  0  0  0  0  0  0  0  0  0  0
   23.2110   10.7890   19.1730 C   0  0  0  0  0  0  0  0  0  0  0  0
   24.2350   10.8650   18.2430 C   0  0  0  0  0  0  0  0  0  0  0  0
   25.5500   10.8410   18.6560 C   0  0  0  0  0  0  0  0  0  0  0  0
   25.8710   10.7460   20.0070 C   0  0  0  0  0  0  0  0  0  0  0  0
   24.8260   10.6610   20.9430 C   0  0  0  0  0  0  0  0  0  0  0  0
    0.0000    0.0000    0.0000 H   0  0  0  0  0  0  0  0  0  0  0  0
    0.0000    0.0000    0.0000 H   0  0  0  0  0  0  0  0  0  0  0  0
    0.0000    0.0000    0.0000 H   0  0  0  0  0  0  0  0  0  0  0  0
    0.0000    0.0000    0.0000 H   0  0  0  0  0  0  0  0  0  0  0  0
    0.0000    0.0000    0.0000 H   0  0  0  0  0  0  0  0  0  0  0  0
    0.0000    0.0000    0.0000 H   0  0  0  0  0  0  0  0  0  0  0  0
    0.0000    0.0000    0.0000 H   0  0  0  0  0  0  0  0  0  0  0  0
    0.0000    0.0000    0.0000 H   0  0  0  0  0  0  0  0  0  0  0  0
    0.0000    0.0000    0.0000 H   0  0  0  0  0  0  0  0  0  0  0  0
    0.0000    0.0000    0.0000 H   0  0  0  0  0  0  0  0  0  0  0  0
    0.0000    0.0000    0.0000 H   0  0  0  0  0  0  0  0  0  0  0  0
    0.0000    0.0000    0.0000 H   0  0  0  0  0  0  0  0  0  0  0  0
    0.0000    0.0000    0.0000 H   0  0  0  0  0  0  0  0  0  0  0  0
    0.0000    0.0000    0.0000 H   0  0  0  0  0  0  0  0  0  0  0  0
   12.3469    5.2389    9.0154 O   0  0  0  0  0  0  0  0  0  0  0  0
   13.0139    4.5169    8.0501 C   0  0  0  0  0  0  0  0  0  0  0  0
   13.9103    3.4965    8.3654 C   0  0  0  0  0  0  0  0  0  0  0  0
   14.5483    2.8086    7.3526 C   0  0  0  0  0  0  0  0  0  0  0  0
   14.2985    3.1310    6.0367 C   0  0  0  0  0  0  0  0  0  0  0  0
   14.9335    2.4467    5.0231 O   0  0  0  0  0  0  0  0  0  0  0  0
   15.8423    1.4129    5.3178 C   0  0  0  0  0  0  0  0  0  0  0  0
   13.4057    4.1474    5.7183 C   0  0  0  0  0  0  0  0  0  0  0  0
   12.7723    4.8302    6.7275 C   0  0  0  0  0  0  0  0  0  0  0  0
   14.0968    3.2541    9.4013 H   0  0  0  0  0  0  0  0  0  0  0  0
   15.2533    2.0083    7.5320 H   0  0  0  0  0  0  0  0  0  0  0  0
   16.6942    1.8301    5.8861 H   0  0  0  0  0  0  0  0  0  0  0  0
   16.1634    0.9466    4.3629 H   0  0  0  0  0  0  0  0  0  0  0  0
   15.3077    0.6776    5.9517 H   0  0  0  0  0  0  0  0  0  0  0  0
   13.1999    4.4111    4.6956 H   0  0  0  0  0  0  0  0  0  0  0  0
   12.0767    5.6216    6.4936 H   0  0  0  0  0  0  0  0  0  0  0  0
  1  3  2  0
  1  4  1  0
  1  5  1  0
  2  4  1  0
  2  6  1  0
  4  9  1  0
  4 15  1  0
  5  6  1  0
  5  8  1  0
  6  7  2  3
  9 10  2  0
  9 14  1  0
 10 11  1  0
 11 12  2  0
 12 13  1  0
 13 14  2  0
 15 16  2  0
 15 20  1  0
 16 17  1  0
 17 18  2  0
 18 19  1  0
 19 20  2  0
  2 21  1  0
  7 22  1  0
  8 23  1  0
  8 24  1  0
  8 25  1  0
 10 26  1  0
 11 27  1  0
 12 28  1  0
 13 29  1  0
 14 30  1  0
 16 31  1  0
 17 32  1  0
 19 33  1  0
 20 34  1  0
 35 36  1  0
 36 37  2  0
 37 38  1  0
 38 39  2  0
 39 40  1  0
 40 41  1  0
 39 42  1  0
 42 43  2  0
 43 36  1  0
 37 44  1  0
 38 45  1  0
 41 46  1  0
 41 47  1  0
 41 48  1  0
 42 49  1  0
 43 50  1  0
 18 35  1  0
M  END
>  <attachment_point>  (330) 
32

>  <score>  (330) 
<NA>

$$$$
4djw
     RDKit          3D

 52 55  0  0  0  0  0  0  0  0999 V2000
   22.4950   11.8750   22.5810 C   0  0  0  0  0  0  0  0  0  0  0  0
   22.5380    9.4930   22.4640 N   0  0  0  0  0  0  0  0  0  0  0  0
   22.3600   13.0630   22.3480 O   0  0  0  0  0  0  0  0  0  0  0  0
   22.3390   10.6680   21.5610 C   0  0  0  0  0  0  0  0  0  0  0  0
   22.7860   11.3350   23.8120 N   0  0  0  0  0  0  0  0  0  0  0  0
   22.7800    9.9140   23.7010 C   0  0  0  0  0  0  0  0  0  0  0  0
   22.9970    9.1110   24.7490 N   0  0  0  0  0  0  0  0  0  0  0  0
   23.0220   12.1410   25.0180 C   0  0  0  0  0  0  0  0  0  0  0  0
   20.9020   10.6270   21.0050 C   0  0  0  0  0  0  0  0  0  0  0  0
   20.2720    9.4140   20.7470 C   0  0  0  0  0  0  0  0  0  0  0  0
   18.9690    9.3760   20.2600 C   0  0  0  0  0  0  0  0  0  0  0  0
   18.2800   10.5440   20.0210 C   0  0  0  0  0  0  0  0  0  0  0  0
   18.8920   11.7530   20.2590 C   0  0  0  0  0  0  0  0  0  0  0  0
   20.1950   11.7970   20.7440 C   0  0  0  0  0  0  0  0  0  0  0  0
   23.4880   10.6920   20.5300 C   0  0  0  0  0  0  0  0  0  0  0  0
   23.2110   10.7890   19.1730 C   0  0  0  0  0  0  0  0  0  0  0  0
   24.2350   10.8650   18.2430 C   0  0  0  0  0  0  0  0  0  0  0  0
   25.5500   10.8410   18.6560 C   0  0  0  0  0  0  0  0  0  0  0  0
   25.8710   10.7460   20.0070 C   0  0  0  0  0  0  0  0  0  0  0  0
   24.8260   10.6610   20.9430 C   0  0  0  0  0  0  0  0  0  0  0  0
    0.0000    0.0000    0.0000 H   0  0  0  0  0  0  0  0  0  0  0  0
    0.0000    0.0000    0.0000 H   0  0  0  0  0  0  0  0  0  0  0  0
    0.0000    0.0000    0.0000 H   0  0  0  0  0  0  0  0  0  0  0  0
    0.0000    0.0000    0.0000 H   0  0  0  0  0  0  0  0  0  0  0  0
    0.0000    0.0000    0.0000 H   0  0  0  0  0  0  0  0  0  0  0  0
    0.0000    0.0000    0.0000 H   0  0  0  0  0  0  0  0  0  0  0  0
    0.0000    0.0000    0.0000 H   0  0  0  0  0  0  0  0  0  0  0  0
    0.0000    0.0000    0.0000 H   0  0  0  0  0  0  0  0  0  0  0  0
    0.0000    0.0000    0.0000 H   0  0  0  0  0  0  0  0  0  0  0  0
    0.0000    0.0000    0.0000 H   0  0  0  0  0  0  0  0  0  0  0  0
    0.0000    0.0000    0.0000 H   0  0  0  0  0  0  0  0  0  0  0  0
    0.0000    0.0000    0.0000 H   0  0  0  0  0  0  0  0  0  0  0  0
    0.0000    0.0000    0.0000 H   0  0  0  0  0  0  0  0  0  0  0  0
    0.0000    0.0000    0.0000 H   0  0  0  0  0  0  0  0  0  0  0  0
   12.4447    5.2804    9.0868 C   0  0  0  0  0  0  0  0  0  0  0  0
   11.1699    5.5524    9.7379 N   0  0  0  0  0  0  0  0  0  0  0  0
   10.9204    4.9813   11.0165 C   0  0  0  0  0  0  0  0  0  0  0  0
   11.8651    4.2604   11.4915 O   0  0  0  0  0  0  0  0  0  0  0  0
    9.6888    5.1875   11.7500 C   0  0  0  0  0  0  0  0  0  0  0  0
    9.5595    4.5842   12.9793 C   0  0  0  0  0  0  0  0  0  0  0  0
    8.3806    4.7638   13.7140 C   0  0  0  0  0  0  0  0  0  0  0  0
    7.3534    5.5373   13.2165 C   0  0  0  0  0  0  0  0  0  0  0  0
    7.4779    6.1352   12.0017 C   0  0  0  0  0  0  0  0  0  0  0  0
    8.6612    5.9493   11.2744 C   0  0  0  0  0  0  0  0  0  0  0  0
   12.5581    4.2177    8.8059 H   0  0  0  0  0  0  0  0  0  0  0  0
   12.4511    5.8454    8.1102 H   0  0  0  0  0  0  0  0  0  0  0  0
   10.4440    6.1521    9.2886 H   0  0  0  0  0  0  0  0  0  0  0  0
   10.3122    3.9737   13.4243 H   0  0  0  0  0  0  0  0  0  0  0  0
    8.2547    4.2983   14.6861 H   0  0  0  0  0  0  0  0  0  0  0  0
    6.4385    5.6794   13.7817 H   0  0  0  0  0  0  0  0  0  0  0  0
    6.6679    6.7512   11.5979 H   0  0  0  0  0  0  0  0  0  0  0  0
    8.7391    6.4319   10.3141 H   0  0  0  0  0  0  0  0  0  0  0  0
  1  3  2  0
  1  4  1  0
  1  5  1  0
  2  4  1  0
  2  6  1  0
  4  9  1  0
  4 15  1  0
  5  6  1  0
  5  8  1  0
  6  7  2  3
  9 10  2  0
  9 14  1  0
 10 11  1  0
 11 12  2  0
 12 13  1  0
 13 14  2  0
 15 16  2  0
 15 20  1  0
 16 17  1  0
 17 18  2  0
 18 19  1  0
 19 20  2  0
  2 21  1  0
  7 22  1  0
  8 23  1  0
  8 24  1  0
  8 25  1  0
 10 26  1  0
 11 27  1  0
 12 28  1  0
 13 29  1  0
 14 30  1  0
 16 31  1  0
 17 32  1  0
 19 33  1  0
 20 34  1  0
 35 36  1  0
 36 37  1  0
 37 38  2  0
 37 39  1  0
 39 40  2  0
 40 41  1  0
 41 42  2  0
 42 43  1  0
 43 44  2  0
 44 39  1  0
 35 45  1  0
 35 46  1  0
 36 47  1  0
 40 48  1  0
 41 49  1  0
 42 50  1  0
 43 51  1  0
 44 52  1  0
 18 35  1  0
M  END
>  <attachment_point>  (331) 
32

>  <score>  (331) 
<NA>

$$$$
4djw
     RDKit          3D

 38 40  0  0  0  0  0  0  0  0999 V2000
   22.4950   11.8750   22.5810 C   0  0  0  0  0  0  0  0  0  0  0  0
   22.5380    9.4930   22.4640 N   0  0  0  0  0  0  0  0  0  0  0  0
   22.3600   13.0630   22.3480 O   0  0  0  0  0  0  0  0  0  0  0  0
   22.3390   10.6680   21.5610 C   0  0  0  0  0  0  0  0  0  0  0  0
   22.7860   11.3350   23.8120 N   0  0  0  0  0  0  0  0  0  0  0  0
   22.7800    9.9140   23.7010 C   0  0  0  0  0  0  0  0  0  0  0  0
   22.9970    9.1110   24.7490 N   0  0  0  0  0  0  0  0  0  0  0  0
   23.0220   12.1410   25.0180 C   0  0  0  0  0  0  0  0  0  0  0  0
   20.9020   10.6270   21.0050 C   0  0  0  0  0  0  0  0  0  0  0  0
   20.2720    9.4140   20.7470 C   0  0  0  0  0  0  0  0  0  0  0  0
   18.9690    9.3760   20.2600 C   0  0  0  0  0  0  0  0  0  0  0  0
   18.2800   10.5440   20.0210 C   0  0  0  0  0  0  0  0  0  0  0  0
   18.8920   11.7530   20.2590 C   0  0  0  0  0  0  0  0  0  0  0  0
   20.1950   11.7970   20.7440 C   0  0  0  0  0  0  0  0  0  0  0  0
   23.4880   10.6920   20.5300 C   0  0  0  0  0  0  0  0  0  0  0  0
   23.2110   10.7890   19.1730 C   0  0  0  0  0  0  0  0  0  0  0  0
   24.2350   10.8650   18.2430 C   0  0  0  0  0  0  0  0  0  0  0  0
   25.5500   10.8410   18.6560 C   0  0  0  0  0  0  0  0  0  0  0  0
   25.8710   10.7460   20.0070 C   0  0  0  0  0  0  0  0  0  0  0  0
   24.8260   10.6610   20.9430 C   0  0  0  0  0  0  0  0  0  0  0  0
    0.0000    0.0000    0.0000 H   0  0  0  0  0  0  0  0  0  0  0  0
    0.0000    0.0000    0.0000 H   0  0  0  0  0  0  0  0  0  0  0  0
    0.0000    0.0000    0.0000 H   0  0  0  0  0  0  0  0  0  0  0  0
    0.0000    0.0000    0.0000 H   0  0  0  0  0  0  0  0  0  0  0  0
    0.0000    0.0000    0.0000 H   0  0  0  0  0  0  0  0  0  0  0  0
    0.0000    0.0000    0.0000 H   0  0  0  0  0  0  0  0  0  0  0  0
    0.0000    0.0000    0.0000 H   0  0  0  0  0  0  0  0  0  0  0  0
    0.0000    0.0000    0.0000 H   0  0  0  0  0  0  0  0  0  0  0  0
    0.0000    0.0000    0.0000 H   0  0  0  0  0  0  0  0  0  0  0  0
    0.0000    0.0000    0.0000 H   0  0  0  0  0  0  0  0  0  0  0  0
    0.0000    0.0000    0.0000 H   0  0  0  0  0  0  0  0  0  0  0  0
    0.0000    0.0000    0.0000 H   0  0  0  0  0  0  0  0  0  0  0  0
    0.0000    0.0000    0.0000 H   0  0  0  0  0  0  0  0  0  0  0  0
    0.0000    0.0000    0.0000 H   0  0  0  0  0  0  0  0  0  0  0  0
   12.4056    5.2638    9.0583 C   0  0  0  0  0  0  0  0  0  0  0  0
   12.1496    6.2550    8.1720 F   0  0  0  0  0  0  0  0  0  0  0  0
   11.5755    5.1211    9.7600 H   0  0  0  0  0  0  0  0  0  0  0  0
   12.7501    4.3192    8.6407 H   0  0  0  0  0  0  0  0  0  0  0  0
  1  3  2  0
  1  4  1  0
  1  5  1  0
  2  4  1  0
  2  6  1  0
  4  9  1  0
  4 15  1  0
  5  6  1  0
  5  8  1  0
  6  7  2  3
  9 10  2  0
  9 14  1  0
 10 11  1  0
 11 12  2  0
 12 13  1  0
 13 14  2  0
 15 16  2  0
 15 20  1  0
 16 17  1  0
 17 18  2  0
 18 19  1  0
 19 20  2  0
  2 21  1  0
  7 22  1  0
  8 23  1  0
  8 24  1  0
  8 25  1  0
 10 26  1  0
 11 27  1  0
 12 28  1  0
 13 29  1  0
 14 30  1  0
 16 31  1  0
 17 32  1  0
 19 33  1  0
 20 34  1  0
 35 36  1  0
 35 37  1  0
 35 38  1  0
 18 35  1  0
M  END
>  <attachment_point>  (332) 
32

>  <score>  (332) 
<NA>

$$$$
4djw
     RDKit          3D

 46 49  0  0  0  0  0  0  0  0999 V2000
   22.4950   11.8750   22.5810 C   0  0  0  0  0  0  0  0  0  0  0  0
   22.5380    9.4930   22.4640 N   0  0  0  0  0  0  0  0  0  0  0  0
   22.3600   13.0630   22.3480 O   0  0  0  0  0  0  0  0  0  0  0  0
   22.3390   10.6680   21.5610 C   0  0  0  0  0  0  0  0  0  0  0  0
   22.7860   11.3350   23.8120 N   0  0  0  0  0  0  0  0  0  0  0  0
   22.7800    9.9140   23.7010 C   0  0  0  0  0  0  0  0  0  0  0  0
   22.9970    9.1110   24.7490 N   0  0  0  0  0  0  0  0  0  0  0  0
   23.0220   12.1410   25.0180 C   0  0  0  0  0  0  0  0  0  0  0  0
   20.9020   10.6270   21.0050 C   0  0  0  0  0  0  0  0  0  0  0  0
   20.2720    9.4140   20.7470 C   0  0  0  0  0  0  0  0  0  0  0  0
   18.9690    9.3760   20.2600 C   0  0  0  0  0  0  0  0  0  0  0  0
   18.2800   10.5440   20.0210 C   0  0  0  0  0  0  0  0  0  0  0  0
   18.8920   11.7530   20.2590 C   0  0  0  0  0  0  0  0  0  0  0  0
   20.1950   11.7970   20.7440 C   0  0  0  0  0  0  0  0  0  0  0  0
   23.4880   10.6920   20.5300 C   0  0  0  0  0  0  0  0  0  0  0  0
   23.2110   10.7890   19.1730 C   0  0  0  0  0  0  0  0  0  0  0  0
   24.2350   10.8650   18.2430 C   0  0  0  0  0  0  0  0  0  0  0  0
   25.5500   10.8410   18.6560 C   0  0  0  0  0  0  0  0  0  0  0  0
   25.8710   10.7460   20.0070 C   0  0  0  0  0  0  0  0  0  0  0  0
   24.8260   10.6610   20.9430 C   0  0  0  0  0  0  0  0  0  0  0  0
    0.0000    0.0000    0.0000 H   0  0  0  0  0  0  0  0  0  0  0  0
    0.0000    0.0000    0.0000 H   0  0  0  0  0  0  0  0  0  0  0  0
    0.0000    0.0000    0.0000 H   0  0  0  0  0  0  0  0  0  0  0  0
    0.0000    0.0000    0.0000 H   0  0  0  0  0  0  0  0  0  0  0  0
    0.0000    0.0000    0.0000 H   0  0  0  0  0  0  0  0  0  0  0  0
    0.0000    0.0000    0.0000 H   0  0  0  0  0  0  0  0  0  0  0  0
    0.0000    0.0000    0.0000 H   0  0  0  0  0  0  0  0  0  0  0  0
    0.0000    0.0000    0.0000 H   0  0  0  0  0  0  0  0  0  0  0  0
    0.0000    0.0000    0.0000 H   0  0  0  0  0  0  0  0  0  0  0  0
    0.0000    0.0000    0.0000 H   0  0  0  0  0  0  0  0  0  0  0  0
    0.0000    0.0000    0.0000 H   0  0  0  0  0  0  0  0  0  0  0  0
    0.0000    0.0000    0.0000 H   0  0  0  0  0  0  0  0  0  0  0  0
    0.0000    0.0000    0.0000 H   0  0  0  0  0  0  0  0  0  0  0  0
    0.0000    0.0000    0.0000 H   0  0  0  0  0  0  0  0  0  0  0  0
   12.4055    5.2637    9.0582 N   0  0  0  0  0  0  0  0  0  0  0  0
   12.7527    4.9161    7.7525 C   0  0  0  0  0  0  0  0  0  0  0  0
   13.1548    3.6300    7.4206 C   0  0  0  0  0  0  0  0  0  0  0  0
   13.4747    3.3839    6.1150 C   0  0  0  0  0  0  0  0  0  0  0  0
   13.4173    4.3359    5.1325 C   0  0  0  0  0  0  0  0  0  0  0  0
   13.0230    5.5657    5.5000 N   0  0  0  0  0  0  0  0  0  0  0  0
   12.6966    5.8775    6.7506 C   0  0  0  0  0  0  0  0  0  0  0  0
   11.5399    5.2583    9.5643 H   0  0  0  0  0  0  0  0  0  0  0  0
   13.1981    2.8802    8.2050 H   0  0  0  0  0  0  0  0  0  0  0  0
   13.7909    2.3902    5.8298 H   0  0  0  0  0  0  0  0  0  0  0  0
   13.6830    4.0820    4.1137 H   0  0  0  0  0  0  0  0  0  0  0  0
   12.3733    6.8926    7.0452 H   0  0  0  0  0  0  0  0  0  0  0  0
  1  3  2  0
  1  4  1  0
  1  5  1  0
  2  4  1  0
  2  6  1  0
  4  9  1  0
  4 15  1  0
  5  6  1  0
  5  8  1  0
  6  7  2  3
  9 10  2  0
  9 14  1  0
 10 11  1  0
 11 12  2  0
 12 13  1  0
 13 14  2  0
 15 16  2  0
 15 20  1  0
 16 17  1  0
 17 18  2  0
 18 19  1  0
 19 20  2  0
  2 21  1  0
  7 22  1  0
  8 23  1  0
  8 24  1  0
  8 25  1  0
 10 26  1  0
 11 27  1  0
 12 28  1  0
 13 29  1  0
 14 30  1  0
 16 31  1  0
 17 32  1  0
 19 33  1  0
 20 34  1  0
 35 36  1  0
 36 37  2  0
 37 38  1  0
 38 39  2  0
 39 40  1  0
 40 41  2  0
 41 36  1  0
 35 42  1  0
 37 43  1  0
 38 44  1  0
 39 45  1  0
 41 46  1  0
 18 35  1  0
M  END
>  <attachment_point>  (333) 
32

>  <score>  (333) 
<NA>

$$$$
4djw
     RDKit          3D

 49 52  0  0  0  0  0  0  0  0999 V2000
   22.4950   11.8750   22.5810 C   0  0  0  0  0  0  0  0  0  0  0  0
   22.5380    9.4930   22.4640 N   0  0  0  0  0  0  0  0  0  0  0  0
   22.3600   13.0630   22.3480 O   0  0  0  0  0  0  0  0  0  0  0  0
   22.3390   10.6680   21.5610 C   0  0  0  0  0  0  0  0  0  0  0  0
   22.7860   11.3350   23.8120 N   0  0  0  0  0  0  0  0  0  0  0  0
   22.7800    9.9140   23.7010 C   0  0  0  0  0  0  0  0  0  0  0  0
   22.9970    9.1110   24.7490 N   0  0  0  0  0  0  0  0  0  0  0  0
   23.0220   12.1410   25.0180 C   0  0  0  0  0  0  0  0  0  0  0  0
   20.9020   10.6270   21.0050 C   0  0  0  0  0  0  0  0  0  0  0  0
   20.2720    9.4140   20.7470 C   0  0  0  0  0  0  0  0  0  0  0  0
   18.9690    9.3760   20.2600 C   0  0  0  0  0  0  0  0  0  0  0  0
   18.2800   10.5440   20.0210 C   0  0  0  0  0  0  0  0  0  0  0  0
   18.8920   11.7530   20.2590 C   0  0  0  0  0  0  0  0  0  0  0  0
   20.1950   11.7970   20.7440 C   0  0  0  0  0  0  0  0  0  0  0  0
   23.4880   10.6920   20.5300 C   0  0  0  0  0  0  0  0  0  0  0  0
   23.2110   10.7890   19.1730 C   0  0  0  0  0  0  0  0  0  0  0  0
   24.2350   10.8650   18.2430 C   0  0  0  0  0  0  0  0  0  0  0  0
   25.5500   10.8410   18.6560 C   0  0  0  0  0  0  0  0  0  0  0  0
   25.8710   10.7460   20.0070 C   0  0  0  0  0  0  0  0  0  0  0  0
   24.8260   10.6610   20.9430 C   0  0  0  0  0  0  0  0  0  0  0  0
    0.0000    0.0000    0.0000 H   0  0  0  0  0  0  0  0  0  0  0  0
    0.0000    0.0000    0.0000 H   0  0  0  0  0  0  0  0  0  0  0  0
    0.0000    0.0000    0.0000 H   0  0  0  0  0  0  0  0  0  0  0  0
    0.0000    0.0000    0.0000 H   0  0  0  0  0  0  0  0  0  0  0  0
    0.0000    0.0000    0.0000 H   0  0  0  0  0  0  0  0  0  0  0  0
    0.0000    0.0000    0.0000 H   0  0  0  0  0  0  0  0  0  0  0  0
    0.0000    0.0000    0.0000 H   0  0  0  0  0  0  0  0  0  0  0  0
    0.0000    0.0000    0.0000 H   0  0  0  0  0  0  0  0  0  0  0  0
    0.0000    0.0000    0.0000 H   0  0  0  0  0  0  0  0  0  0  0  0
    0.0000    0.0000    0.0000 H   0  0  0  0  0  0  0  0  0  0  0  0
    0.0000    0.0000    0.0000 H   0  0  0  0  0  0  0  0  0  0  0  0
    0.0000    0.0000    0.0000 H   0  0  0  0  0  0  0  0  0  0  0  0
    0.0000    0.0000    0.0000 H   0  0  0  0  0  0  0  0  0  0  0  0
    0.0000    0.0000    0.0000 H   0  0  0  0  0  0  0  0  0  0  0  0
   12.4539    5.2843    9.0936 N   0  0  0  0  0  0  0  0  0  0  0  0
   11.6299    6.4490    8.7889 C   0  0  0  0  0  0  0  0  0  0  0  0
   11.1650    7.0167   10.0691 C   0  0  0  0  0  0  0  0  0  0  0  0
   11.9265    7.9725   10.6914 C   0  0  0  0  0  0  0  0  0  0  0  0
   11.4862    8.5044   11.8954 C   0  0  0  0  0  0  0  0  0  0  0  0
   10.3271    8.0806   12.4347 N   0  0  0  0  0  0  0  0  0  0  0  0
    9.5468    7.1433   11.8578 C   0  0  0  0  0  0  0  0  0  0  0  0
    9.9999    6.6211   10.6549 C   0  0  0  0  0  0  0  0  0  0  0  0
   11.9001    4.5822    9.6197 H   0  0  0  0  0  0  0  0  0  0  0  0
   12.2647    7.1693    8.2041 H   0  0  0  0  0  0  0  0  0  0  0  0
   10.7666    6.1804    8.1599 H   0  0  0  0  0  0  0  0  0  0  0  0
   12.8696    8.3388   10.2835 H   0  0  0  0  0  0  0  0  0  0  0  0
   12.1053    9.2604   12.3709 H   0  0  0  0  0  0  0  0  0  0  0  0
    8.6177    6.8024   12.2885 H   0  0  0  0  0  0  0  0  0  0  0  0
    9.4121    5.8698   10.1552 H   0  0  0  0  0  0  0  0  0  0  0  0
  1  3  2  0
  1  4  1  0
  1  5  1  0
  2  4  1  0
  2  6  1  0
  4  9  1  0
  4 15  1  0
  5  6  1  0
  5  8  1  0
  6  7  2  3
  9 10  2  0
  9 14  1  0
 10 11  1  0
 11 12  2  0
 12 13  1  0
 13 14  2  0
 15 16  2  0
 15 20  1  0
 16 17  1  0
 17 18  2  0
 18 19  1  0
 19 20  2  0
  2 21  1  0
  7 22  1  0
  8 23  1  0
  8 24  1  0
  8 25  1  0
 10 26  1  0
 11 27  1  0
 12 28  1  0
 13 29  1  0
 14 30  1  0
 16 31  1  0
 17 32  1  0
 19 33  1  0
 20 34  1  0
 35 36  1  0
 36 37  1  0
 37 38  2  0
 38 39  1  0
 39 40  2  0
 40 41  1  0
 41 42  2  0
 42 37  1  0
 35 43  1  0
 36 44  1  0
 36 45  1  0
 38 46  1  0
 39 47  1  0
 41 48  1  0
 42 49  1  0
 18 35  1  0
M  END
>  <attachment_point>  (334) 
32

>  <score>  (334) 
<NA>

$$$$
4djw
     RDKit          3D

 42 45  0  0  0  0  0  0  0  0999 V2000
   22.4950   11.8750   22.5810 C   0  0  0  0  0  0  0  0  0  0  0  0
   22.5380    9.4930   22.4640 N   0  0  0  0  0  0  0  0  0  0  0  0
   22.3600   13.0630   22.3480 O   0  0  0  0  0  0  0  0  0  0  0  0
   22.3390   10.6680   21.5610 C   0  0  0  0  0  0  0  0  0  0  0  0
   22.7860   11.3350   23.8120 N   0  0  0  0  0  0  0  0  0  0  0  0
   22.7800    9.9140   23.7010 C   0  0  0  0  0  0  0  0  0  0  0  0
   22.9970    9.1110   24.7490 N   0  0  0  0  0  0  0  0  0  0  0  0
   23.0220   12.1410   25.0180 C   0  0  0  0  0  0  0  0  0  0  0  0
   20.9020   10.6270   21.0050 C   0  0  0  0  0  0  0  0  0  0  0  0
   20.2720    9.4140   20.7470 C   0  0  0  0  0  0  0  0  0  0  0  0
   18.9690    9.3760   20.2600 C   0  0  0  0  0  0  0  0  0  0  0  0
   18.2800   10.5440   20.0210 C   0  0  0  0  0  0  0  0  0  0  0  0
   18.8920   11.7530   20.2590 C   0  0  0  0  0  0  0  0  0  0  0  0
   20.1950   11.7970   20.7440 C   0  0  0  0  0  0  0  0  0  0  0  0
   23.4880   10.6920   20.5300 C   0  0  0  0  0  0  0  0  0  0  0  0
   23.2110   10.7890   19.1730 C   0  0  0  0  0  0  0  0  0  0  0  0
   24.2350   10.8650   18.2430 C   0  0  0  0  0  0  0  0  0  0  0  0
   25.5500   10.8410   18.6560 C   0  0  0  0  0  0  0  0  0  0  0  0
   25.8710   10.7460   20.0070 C   0  0  0  0  0  0  0  0  0  0  0  0
   24.8260   10.6610   20.9430 C   0  0  0  0  0  0  0  0  0  0  0  0
    0.0000    0.0000    0.0000 H   0  0  0  0  0  0  0  0  0  0  0  0
    0.0000    0.0000    0.0000 H   0  0  0  0  0  0  0  0  0  0  0  0
    0.0000    0.0000    0.0000 H   0  0  0  0  0  0  0  0  0  0  0  0
    0.0000    0.0000    0.0000 H   0  0  0  0  0  0  0  0  0  0  0  0
    0.0000    0.0000    0.0000 H   0  0  0  0  0  0  0  0  0  0  0  0
    0.0000    0.0000    0.0000 H   0  0  0  0  0  0  0  0  0  0  0  0
    0.0000    0.0000    0.0000 H   0  0  0  0  0  0  0  0  0  0  0  0
    0.0000    0.0000    0.0000 H   0  0  0  0  0  0  0  0  0  0  0  0
    0.0000    0.0000    0.0000 H   0  0  0  0  0  0  0  0  0  0  0  0
    0.0000    0.0000    0.0000 H   0  0  0  0  0  0  0  0  0  0  0  0
    0.0000    0.0000    0.0000 H   0  0  0  0  0  0  0  0  0  0  0  0
    0.0000    0.0000    0.0000 H   0  0  0  0  0  0  0  0  0  0  0  0
    0.0000    0.0000    0.0000 H   0  0  0  0  0  0  0  0  0  0  0  0
    0.0000    0.0000    0.0000 H   0  0  0  0  0  0  0  0  0  0  0  0
   12.4101    5.2657    9.0616 C   0  0  0  0  0  0  0  0  0  0  0  0
   12.3127    5.3250    7.7567 N   0  0  0  0  0  0  0  0  0  0  0  0
   11.1154    4.7747    7.4022 C   0  0  0  0  0  0  0  0  0  0  0  0
   10.5249    4.3919    8.5935 C   0  0  0  0  0  0  0  0  0  0  0  0
   11.3503    4.7067    9.6292 N   0  0  0  0  0  0  0  0  0  0  0  0
   10.7211    4.6651    6.4074 H   0  0  0  0  0  0  0  0  0  0  0  0
    9.5636    3.9174    8.7081 H   0  0  0  0  0  0  0  0  0  0  0  0
   11.2340    4.5676   10.6441 H   0  0  0  0  0  0  0  0  0  0  0  0
  1  3  2  0
  1  4  1  0
  1  5  1  0
  2  4  1  0
  2  6  1  0
  4  9  1  0
  4 15  1  0
  5  6  1  0
  5  8  1  0
  6  7  2  3
  9 10  2  0
  9 14  1  0
 10 11  1  0
 11 12  2  0
 12 13  1  0
 13 14  2  0
 15 16  2  0
 15 20  1  0
 16 17  1  0
 17 18  2  0
 18 19  1  0
 19 20  2  0
  2 21  1  0
  7 22  1  0
  8 23  1  0
  8 24  1  0
  8 25  1  0
 10 26  1  0
 11 27  1  0
 12 28  1  0
 13 29  1  0
 14 30  1  0
 16 31  1  0
 17 32  1  0
 19 33  1  0
 20 34  1  0
 35 36  2  0
 36 37  1  0
 37 38  2  0
 38 39  1  0
 39 35  1  0
 37 40  1  0
 38 41  1  0
 39 42  1  0
 18 35  1  0
M  END
>  <attachment_point>  (335) 
32

>  <score>  (335) 
<NA>

$$$$
4djw
     RDKit          3D

 46 49  0  0  0  0  0  0  0  0999 V2000
   22.4950   11.8750   22.5810 C   0  0  0  0  0  0  0  0  0  0  0  0
   22.5380    9.4930   22.4640 N   0  0  0  0  0  0  0  0  0  0  0  0
   22.3600   13.0630   22.3480 O   0  0  0  0  0  0  0  0  0  0  0  0
   22.3390   10.6680   21.5610 C   0  0  0  0  0  0  0  0  0  0  0  0
   22.7860   11.3350   23.8120 N   0  0  0  0  0  0  0  0  0  0  0  0
   22.7800    9.9140   23.7010 C   0  0  0  0  0  0  0  0  0  0  0  0
   22.9970    9.1110   24.7490 N   0  0  0  0  0  0  0  0  0  0  0  0
   23.0220   12.1410   25.0180 C   0  0  0  0  0  0  0  0  0  0  0  0
   20.9020   10.6270   21.0050 C   0  0  0  0  0  0  0  0  0  0  0  0
   20.2720    9.4140   20.7470 C   0  0  0  0  0  0  0  0  0  0  0  0
   18.9690    9.3760   20.2600 C   0  0  0  0  0  0  0  0  0  0  0  0
   18.2800   10.5440   20.0210 C   0  0  0  0  0  0  0  0  0  0  0  0
   18.8920   11.7530   20.2590 C   0  0  0  0  0  0  0  0  0  0  0  0
   20.1950   11.7970   20.7440 C   0  0  0  0  0  0  0  0  0  0  0  0
   23.4880   10.6920   20.5300 C   0  0  0  0  0  0  0  0  0  0  0  0
   23.2110   10.7890   19.1730 C   0  0  0  0  0  0  0  0  0  0  0  0
   24.2350   10.8650   18.2430 C   0  0  0  0  0  0  0  0  0  0  0  0
   25.5500   10.8410   18.6560 C   0  0  0  0  0  0  0  0  0  0  0  0
   25.8710   10.7460   20.0070 C   0  0  0  0  0  0  0  0  0  0  0  0
   24.8260   10.6610   20.9430 C   0  0  0  0  0  0  0  0  0  0  0  0
    0.0000    0.0000    0.0000 H   0  0  0  0  0  0  0  0  0  0  0  0
    0.0000    0.0000    0.0000 H   0  0  0  0  0  0  0  0  0  0  0  0
    0.0000    0.0000    0.0000 H   0  0  0  0  0  0  0  0  0  0  0  0
    0.0000    0.0000    0.0000 H   0  0  0  0  0  0  0  0  0  0  0  0
    0.0000    0.0000    0.0000 H   0  0  0  0  0  0  0  0  0  0  0  0
    0.0000    0.0000    0.0000 H   0  0  0  0  0  0  0  0  0  0  0  0
    0.0000    0.0000    0.0000 H   0  0  0  0  0  0  0  0  0  0  0  0
    0.0000    0.0000    0.0000 H   0  0  0  0  0  0  0  0  0  0  0  0
    0.0000    0.0000    0.0000 H   0  0  0  0  0  0  0  0  0  0  0  0
    0.0000    0.0000    0.0000 H   0  0  0  0  0  0  0  0  0  0  0  0
    0.0000    0.0000    0.0000 H   0  0  0  0  0  0  0  0  0  0  0  0
    0.0000    0.0000    0.0000 H   0  0  0  0  0  0  0  0  0  0  0  0
    0.0000    0.0000    0.0000 H   0  0  0  0  0  0  0  0  0  0  0  0
    0.0000    0.0000    0.0000 H   0  0  0  0  0  0  0  0  0  0  0  0
   12.5655    5.3316    9.1750 O   0  0  0  0  0  0  0  0  0  0  0  0
   11.7366    4.6819    8.2576 C   0  0  0  0  0  0  0  0  0  0  0  0
   12.0893    4.5201    6.9347 C   0  0  0  0  0  0  0  0  0  0  0  0
   11.2584    3.8735    6.0329 C   0  0  0  0  0  0  0  0  0  0  0  0
   10.0370    3.3629    6.4274 C   0  0  0  0  0  0  0  0  0  0  0  0
    9.6896    3.5280    7.7529 C   0  0  0  0  0  0  0  0  0  0  0  0
    8.1422    2.8831    8.2604 Cl  0  0  0  0  0  0  0  0  0  0  0  0
   10.5172    4.1729    8.6541 C   0  0  0  0  0  0  0  0  0  0  0  0
   13.0504    4.9253    6.6378 H   0  0  0  0  0  0  0  0  0  0  0  0
   11.5673    3.7610    4.9889 H   0  0  0  0  0  0  0  0  0  0  0  0
    9.4150    2.8650    5.6985 H   0  0  0  0  0  0  0  0  0  0  0  0
   10.2071    4.2820    9.6880 H   0  0  0  0  0  0  0  0  0  0  0  0
  1  3  2  0
  1  4  1  0
  1  5  1  0
  2  4  1  0
  2  6  1  0
  4  9  1  0
  4 15  1  0
  5  6  1  0
  5  8  1  0
  6  7  2  3
  9 10  2  0
  9 14  1  0
 10 11  1  0
 11 12  2  0
 12 13  1  0
 13 14  2  0
 15 16  2  0
 15 20  1  0
 16 17  1  0
 17 18  2  0
 18 19  1  0
 19 20  2  0
  2 21  1  0
  7 22  1  0
  8 23  1  0
  8 24  1  0
  8 25  1  0
 10 26  1  0
 11 27  1  0
 12 28  1  0
 13 29  1  0
 14 30  1  0
 16 31  1  0
 17 32  1  0
 19 33  1  0
 20 34  1  0
 35 36  1  0
 36 37  2  0
 37 38  1  0
 38 39  2  0
 39 40  1  0
 40 41  1  0
 40 42  2  0
 42 36  1  0
 37 43  1  0
 38 44  1  0
 39 45  1  0
 42 46  1  0
 18 35  1  0
M  END
>  <attachment_point>  (336) 
32

>  <score>  (336) 
<NA>

$$$$
4djw
     RDKit          3D

 47 49  0  0  0  0  0  0  0  0999 V2000
   22.4950   11.8750   22.5810 C   0  0  0  0  0  0  0  0  0  0  0  0
   22.5380    9.4930   22.4640 N   0  0  0  0  0  0  0  0  0  0  0  0
   22.3600   13.0630   22.3480 O   0  0  0  0  0  0  0  0  0  0  0  0
   22.3390   10.6680   21.5610 C   0  0  0  0  0  0  0  0  0  0  0  0
   22.7860   11.3350   23.8120 N   0  0  0  0  0  0  0  0  0  0  0  0
   22.7800    9.9140   23.7010 C   0  0  0  0  0  0  0  0  0  0  0  0
   22.9970    9.1110   24.7490 N   0  0  0  0  0  0  0  0  0  0  0  0
   23.0220   12.1410   25.0180 C   0  0  0  0  0  0  0  0  0  0  0  0
   20.9020   10.6270   21.0050 C   0  0  0  0  0  0  0  0  0  0  0  0
   20.2720    9.4140   20.7470 C   0  0  0  0  0  0  0  0  0  0  0  0
   18.9690    9.3760   20.2600 C   0  0  0  0  0  0  0  0  0  0  0  0
   18.2800   10.5440   20.0210 C   0  0  0  0  0  0  0  0  0  0  0  0
   18.8920   11.7530   20.2590 C   0  0  0  0  0  0  0  0  0  0  0  0
   20.1950   11.7970   20.7440 C   0  0  0  0  0  0  0  0  0  0  0  0
   23.4880   10.6920   20.5300 C   0  0  0  0  0  0  0  0  0  0  0  0
   23.2110   10.7890   19.1730 C   0  0  0  0  0  0  0  0  0  0  0  0
   24.2350   10.8650   18.2430 C   0  0  0  0  0  0  0  0  0  0  0  0
   25.5500   10.8410   18.6560 C   0  0  0  0  0  0  0  0  0  0  0  0
   25.8710   10.7460   20.0070 C   0  0  0  0  0  0  0  0  0  0  0  0
   24.8260   10.6610   20.9430 C   0  0  0  0  0  0  0  0  0  0  0  0
    0.0000    0.0000    0.0000 H   0  0  0  0  0  0  0  0  0  0  0  0
    0.0000    0.0000    0.0000 H   0  0  0  0  0  0  0  0  0  0  0  0
    0.0000    0.0000    0.0000 H   0  0  0  0  0  0  0  0  0  0  0  0
    0.0000    0.0000    0.0000 H   0  0  0  0  0  0  0  0  0  0  0  0
    0.0000    0.0000    0.0000 H   0  0  0  0  0  0  0  0  0  0  0  0
    0.0000    0.0000    0.0000 H   0  0  0  0  0  0  0  0  0  0  0  0
    0.0000    0.0000    0.0000 H   0  0  0  0  0  0  0  0  0  0  0  0
    0.0000    0.0000    0.0000 H   0  0  0  0  0  0  0  0  0  0  0  0
    0.0000    0.0000    0.0000 H   0  0  0  0  0  0  0  0  0  0  0  0
    0.0000    0.0000    0.0000 H   0  0  0  0  0  0  0  0  0  0  0  0
    0.0000    0.0000    0.0000 H   0  0  0  0  0  0  0  0  0  0  0  0
    0.0000    0.0000    0.0000 H   0  0  0  0  0  0  0  0  0  0  0  0
    0.0000    0.0000    0.0000 H   0  0  0  0  0  0  0  0  0  0  0  0
    0.0000    0.0000    0.0000 H   0  0  0  0  0  0  0  0  0  0  0  0
   12.3829    5.2541    9.0417 N   0  0  0  0  0  0  0  0  0  0  0  0
   11.1995    5.9041    9.2587 C   0  0  0  0  0  0  0  0  0  0  0  0
   11.0350    6.8577   10.0988 O   0  0  0  0  0  0  0  0  0  0  0  0
   10.0254    5.5164    8.5051 N   0  0  0  0  0  0  0  0  0  0  0  0
    8.7660    6.1945    8.7233 C   0  0  0  0  0  0  0  0  0  0  0  0
    8.3200    6.0459   10.1412 C   0  0  0  0  0  0  0  0  0  0  0  0
   12.6361    4.5292    8.4455 H   0  0  0  0  0  0  0  0  0  0  0  0
   10.1729    4.7398    7.8254 H   0  0  0  0  0  0  0  0  0  0  0  0
    8.8352    7.2549    8.4039 H   0  0  0  0  0  0  0  0  0  0  0  0
    8.0387    5.7203    8.0040 H   0  0  0  0  0  0  0  0  0  0  0  0
    9.1433    5.6630   10.7759 H   0  0  0  0  0  0  0  0  0  0  0  0
    7.4620    5.3264   10.1485 H   0  0  0  0  0  0  0  0  0  0  0  0
    7.9398    7.0367   10.5174 H   0  0  0  0  0  0  0  0  0  0  0  0
  1  3  2  0
  1  4  1  0
  1  5  1  0
  2  4  1  0
  2  6  1  0
  4  9  1  0
  4 15  1  0
  5  6  1  0
  5  8  1  0
  6  7  2  3
  9 10  2  0
  9 14  1  0
 10 11  1  0
 11 12  2  0
 12 13  1  0
 13 14  2  0
 15 16  2  0
 15 20  1  0
 16 17  1  0
 17 18  2  0
 18 19  1  0
 19 20  2  0
  2 21  1  0
  7 22  1  0
  8 23  1  0
  8 24  1  0
  8 25  1  0
 10 26  1  0
 11 27  1  0
 12 28  1  0
 13 29  1  0
 14 30  1  0
 16 31  1  0
 17 32  1  0
 19 33  1  0
 20 34  1  0
 35 36  1  0
 36 37  2  0
 36 38  1  0
 38 39  1  0
 39 40  1  0
 35 41  1  0
 38 42  1  0
 39 43  1  0
 39 44  1  0
 40 45  1  0
 40 46  1  0
 40 47  1  0
 18 35  1  0
M  END
>  <attachment_point>  (337) 
32

>  <score>  (337) 
<NA>

$$$$
4djw
     RDKit          3D

 51 54  0  0  0  0  0  0  0  0999 V2000
   22.4950   11.8750   22.5810 C   0  0  0  0  0  0  0  0  0  0  0  0
   22.5380    9.4930   22.4640 N   0  0  0  0  0  0  0  0  0  0  0  0
   22.3600   13.0630   22.3480 O   0  0  0  0  0  0  0  0  0  0  0  0
   22.3390   10.6680   21.5610 C   0  0  0  0  0  0  0  0  0  0  0  0
   22.7860   11.3350   23.8120 N   0  0  0  0  0  0  0  0  0  0  0  0
   22.7800    9.9140   23.7010 C   0  0  0  0  0  0  0  0  0  0  0  0
   22.9970    9.1110   24.7490 N   0  0  0  0  0  0  0  0  0  0  0  0
   23.0220   12.1410   25.0180 C   0  0  0  0  0  0  0  0  0  0  0  0
   20.9020   10.6270   21.0050 C   0  0  0  0  0  0  0  0  0  0  0  0
   20.2720    9.4140   20.7470 C   0  0  0  0  0  0  0  0  0  0  0  0
   18.9690    9.3760   20.2600 C   0  0  0  0  0  0  0  0  0  0  0  0
   18.2800   10.5440   20.0210 C   0  0  0  0  0  0  0  0  0  0  0  0
   18.8920   11.7530   20.2590 C   0  0  0  0  0  0  0  0  0  0  0  0
   20.1950   11.7970   20.7440 C   0  0  0  0  0  0  0  0  0  0  0  0
   23.4880   10.6920   20.5300 C   0  0  0  0  0  0  0  0  0  0  0  0
   23.2110   10.7890   19.1730 C   0  0  0  0  0  0  0  0  0  0  0  0
   24.2350   10.8650   18.2430 C   0  0  0  0  0  0  0  0  0  0  0  0
   25.5500   10.8410   18.6560 C   0  0  0  0  0  0  0  0  0  0  0  0
   25.8710   10.7460   20.0070 C   0  0  0  0  0  0  0  0  0  0  0  0
   24.8260   10.6610   20.9430 C   0  0  0  0  0  0  0  0  0  0  0  0
    0.0000    0.0000    0.0000 H   0  0  0  0  0  0  0  0  0  0  0  0
    0.0000    0.0000    0.0000 H   0  0  0  0  0  0  0  0  0  0  0  0
    0.0000    0.0000    0.0000 H   0  0  0  0  0  0  0  0  0  0  0  0
    0.0000    0.0000    0.0000 H   0  0  0  0  0  0  0  0  0  0  0  0
    0.0000    0.0000    0.0000 H   0  0  0  0  0  0  0  0  0  0  0  0
    0.0000    0.0000    0.0000 H   0  0  0  0  0  0  0  0  0  0  0  0
    0.0000    0.0000    0.0000 H   0  0  0  0  0  0  0  0  0  0  0  0
    0.0000    0.0000    0.0000 H   0  0  0  0  0  0  0  0  0  0  0  0
    0.0000    0.0000    0.0000 H   0  0  0  0  0  0  0  0  0  0  0  0
    0.0000    0.0000    0.0000 H   0  0  0  0  0  0  0  0  0  0  0  0
    0.0000    0.0000    0.0000 H   0  0  0  0  0  0  0  0  0  0  0  0
    0.0000    0.0000    0.0000 H   0  0  0  0  0  0  0  0  0  0  0  0
    0.0000    0.0000    0.0000 H   0  0  0  0  0  0  0  0  0  0  0  0
    0.0000    0.0000    0.0000 H   0  0  0  0  0  0  0  0  0  0  0  0
   12.4443    5.2802    9.0865 C   0  0  0  0  0  0  0  0  0  0  0  0
   11.6640    6.1372    8.3399 C   0  0  0  0  0  0  0  0  0  0  0  0
   10.6054    5.6593    7.5711 C   0  0  0  0  0  0  0  0  0  0  0  0
   10.3212    4.3144    7.5460 C   0  0  0  0  0  0  0  0  0  0  0  0
    9.2067    3.8127    6.7365 C   0  0  0  0  0  0  0  0  0  0  0  0
    8.5164    4.6257    6.0678 O   0  0  0  0  0  0  0  0  0  0  0  0
    8.8708    2.4900    6.6669 O   0  0  0  0  0  0  0  0  0  0  0  0
    7.7902    1.9854    5.8846 C   0  0  0  0  0  0  0  0  0  0  0  0
   11.1209    3.4860    8.3038 C   0  0  0  0  0  0  0  0  0  0  0  0
   12.1737    3.9268    9.0734 C   0  0  0  0  0  0  0  0  0  0  0  0
   11.8998    7.1914    8.3699 H   0  0  0  0  0  0  0  0  0  0  0  0
    9.9943    6.3266    6.9870 H   0  0  0  0  0  0  0  0  0  0  0  0
    6.9188    1.9137    6.5716 H   0  0  0  0  0  0  0  0  0  0  0  0
    8.0518    0.9260    5.6246 H   0  0  0  0  0  0  0  0  0  0  0  0
    7.6054    2.5854    4.9929 H   0  0  0  0  0  0  0  0  0  0  0  0
   10.8852    2.4221    8.2752 H   0  0  0  0  0  0  0  0  0  0  0  0
   12.7915    3.2446    9.6652 H   0  0  0  0  0  0  0  0  0  0  0  0
  1  3  2  0
  1  4  1  0
  1  5  1  0
  2  4  1  0
  2  6  1  0
  4  9  1  0
  4 15  1  0
  5  6  1  0
  5  8  1  0
  6  7  2  3
  9 10  2  0
  9 14  1  0
 10 11  1  0
 11 12  2  0
 12 13  1  0
 13 14  2  0
 15 16  2  0
 15 20  1  0
 16 17  1  0
 17 18  2  0
 18 19  1  0
 19 20  2  0
  2 21  1  0
  7 22  1  0
  8 23  1  0
  8 24  1  0
  8 25  1  0
 10 26  1  0
 11 27  1  0
 12 28  1  0
 13 29  1  0
 14 30  1  0
 16 31  1  0
 17 32  1  0
 19 33  1  0
 20 34  1  0
 35 36  2  0
 36 37  1  0
 37 38  2  0
 38 39  1  0
 39 40  2  0
 39 41  1  0
 41 42  1  0
 38 43  1  0
 43 44  2  0
 44 35  1  0
 36 45  1  0
 37 46  1  0
 42 47  1  0
 42 48  1  0
 42 49  1  0
 43 50  1  0
 44 51  1  0
 18 35  1  0
M  END
>  <attachment_point>  (338) 
32

>  <score>  (338) 
<NA>

$$$$
4djw
     RDKit          3D

 42 44  0  0  0  0  0  0  0  0999 V2000
   22.4950   11.8750   22.5810 C   0  0  0  0  0  0  0  0  0  0  0  0
   22.5380    9.4930   22.4640 N   0  0  0  0  0  0  0  0  0  0  0  0
   22.3600   13.0630   22.3480 O   0  0  0  0  0  0  0  0  0  0  0  0
   22.3390   10.6680   21.5610 C   0  0  0  0  0  0  0  0  0  0  0  0
   22.7860   11.3350   23.8120 N   0  0  0  0  0  0  0  0  0  0  0  0
   22.7800    9.9140   23.7010 C   0  0  0  0  0  0  0  0  0  0  0  0
   22.9970    9.1110   24.7490 N   0  0  0  0  0  0  0  0  0  0  0  0
   23.0220   12.1410   25.0180 C   0  0  0  0  0  0  0  0  0  0  0  0
   20.9020   10.6270   21.0050 C   0  0  0  0  0  0  0  0  0  0  0  0
   20.2720    9.4140   20.7470 C   0  0  0  0  0  0  0  0  0  0  0  0
   18.9690    9.3760   20.2600 C   0  0  0  0  0  0  0  0  0  0  0  0
   18.2800   10.5440   20.0210 C   0  0  0  0  0  0  0  0  0  0  0  0
   18.8920   11.7530   20.2590 C   0  0  0  0  0  0  0  0  0  0  0  0
   20.1950   11.7970   20.7440 C   0  0  0  0  0  0  0  0  0  0  0  0
   23.4880   10.6920   20.5300 C   0  0  0  0  0  0  0  0  0  0  0  0
   23.2110   10.7890   19.1730 C   0  0  0  0  0  0  0  0  0  0  0  0
   24.2350   10.8650   18.2430 C   0  0  0  0  0  0  0  0  0  0  0  0
   25.5500   10.8410   18.6560 C   0  0  0  0  0  0  0  0  0  0  0  0
   25.8710   10.7460   20.0070 C   0  0  0  0  0  0  0  0  0  0  0  0
   24.8260   10.6610   20.9430 C   0  0  0  0  0  0  0  0  0  0  0  0
    0.0000    0.0000    0.0000 H   0  0  0  0  0  0  0  0  0  0  0  0
    0.0000    0.0000    0.0000 H   0  0  0  0  0  0  0  0  0  0  0  0
    0.0000    0.0000    0.0000 H   0  0  0  0  0  0  0  0  0  0  0  0
    0.0000    0.0000    0.0000 H   0  0  0  0  0  0  0  0  0  0  0  0
    0.0000    0.0000    0.0000 H   0  0  0  0  0  0  0  0  0  0  0  0
    0.0000    0.0000    0.0000 H   0  0  0  0  0  0  0  0  0  0  0  0
    0.0000    0.0000    0.0000 H   0  0  0  0  0  0  0  0  0  0  0  0
    0.0000    0.0000    0.0000 H   0  0  0  0  0  0  0  0  0  0  0  0
    0.0000    0.0000    0.0000 H   0  0  0  0  0  0  0  0  0  0  0  0
    0.0000    0.0000    0.0000 H   0  0  0  0  0  0  0  0  0  0  0  0
    0.0000    0.0000    0.0000 H   0  0  0  0  0  0  0  0  0  0  0  0
    0.0000    0.0000    0.0000 H   0  0  0  0  0  0  0  0  0  0  0  0
    0.0000    0.0000    0.0000 H   0  0  0  0  0  0  0  0  0  0  0  0
    0.0000    0.0000    0.0000 H   0  0  0  0  0  0  0  0  0  0  0  0
   12.4435    5.2798    9.0859 C   0  0  0  0  0  0  0  0  0  0  0  0
   11.8361    6.5159    8.5402 C   0  0  0  0  0  0  0  0  0  0  0  0
   12.6315    7.3185    7.6937 N   0  0  0  0  0  0  0  0  0  0  0  0
   10.6616    6.8512    8.8103 O   0  0  0  0  0  0  0  0  0  0  0  0
   12.7726    4.6159    8.2826 H   0  0  0  0  0  0  0  0  0  0  0  0
   11.7390    4.7689    9.7963 H   0  0  0  0  0  0  0  0  0  0  0  0
   12.7894    6.9712    6.7274 H   0  0  0  0  0  0  0  0  0  0  0  0
   13.0425    8.2361    8.0550 H   0  0  0  0  0  0  0  0  0  0  0  0
  1  3  2  0
  1  4  1  0
  1  5  1  0
  2  4  1  0
  2  6  1  0
  4  9  1  0
  4 15  1  0
  5  6  1  0
  5  8  1  0
  6  7  2  3
  9 10  2  0
  9 14  1  0
 10 11  1  0
 11 12  2  0
 12 13  1  0
 13 14  2  0
 15 16  2  0
 15 20  1  0
 16 17  1  0
 17 18  2  0
 18 19  1  0
 19 20  2  0
  2 21  1  0
  7 22  1  0
  8 23  1  0
  8 24  1  0
  8 25  1  0
 10 26  1  0
 11 27  1  0
 12 28  1  0
 13 29  1  0
 14 30  1  0
 16 31  1  0
 17 32  1  0
 19 33  1  0
 20 34  1  0
 35 36  1  0
 36 37  1  0
 36 38  2  0
 35 39  1  0
 35 40  1  0
 37 41  1  0
 37 42  1  0
 18 35  1  0
M  END
>  <attachment_point>  (339) 
32

>  <score>  (339) 
<NA>

$$$$
4djw
     RDKit          3D

 49 52  0  0  0  0  0  0  0  0999 V2000
   22.4950   11.8750   22.5810 C   0  0  0  0  0  0  0  0  0  0  0  0
   22.5380    9.4930   22.4640 N   0  0  0  0  0  0  0  0  0  0  0  0
   22.3600   13.0630   22.3480 O   0  0  0  0  0  0  0  0  0  0  0  0
   22.3390   10.6680   21.5610 C   0  0  0  0  0  0  0  0  0  0  0  0
   22.7860   11.3350   23.8120 N   0  0  0  0  0  0  0  0  0  0  0  0
   22.7800    9.9140   23.7010 C   0  0  0  0  0  0  0  0  0  0  0  0
   22.9970    9.1110   24.7490 N   0  0  0  0  0  0  0  0  0  0  0  0
   23.0220   12.1410   25.0180 C   0  0  0  0  0  0  0  0  0  0  0  0
   20.9020   10.6270   21.0050 C   0  0  0  0  0  0  0  0  0  0  0  0
   20.2720    9.4140   20.7470 C   0  0  0  0  0  0  0  0  0  0  0  0
   18.9690    9.3760   20.2600 C   0  0  0  0  0  0  0  0  0  0  0  0
   18.2800   10.5440   20.0210 C   0  0  0  0  0  0  0  0  0  0  0  0
   18.8920   11.7530   20.2590 C   0  0  0  0  0  0  0  0  0  0  0  0
   20.1950   11.7970   20.7440 C   0  0  0  0  0  0  0  0  0  0  0  0
   23.4880   10.6920   20.5300 C   0  0  0  0  0  0  0  0  0  0  0  0
   23.2110   10.7890   19.1730 C   0  0  0  0  0  0  0  0  0  0  0  0
   24.2350   10.8650   18.2430 C   0  0  0  0  0  0  0  0  0  0  0  0
   25.5500   10.8410   18.6560 C   0  0  0  0  0  0  0  0  0  0  0  0
   25.8710   10.7460   20.0070 C   0  0  0  0  0  0  0  0  0  0  0  0
   24.8260   10.6610   20.9430 C   0  0  0  0  0  0  0  0  0  0  0  0
    0.0000    0.0000    0.0000 H   0  0  0  0  0  0  0  0  0  0  0  0
    0.0000    0.0000    0.0000 H   0  0  0  0  0  0  0  0  0  0  0  0
    0.0000    0.0000    0.0000 H   0  0  0  0  0  0  0  0  0  0  0  0
    0.0000    0.0000    0.0000 H   0  0  0  0  0  0  0  0  0  0  0  0
    0.0000    0.0000    0.0000 H   0  0  0  0  0  0  0  0  0  0  0  0
    0.0000    0.0000    0.0000 H   0  0  0  0  0  0  0  0  0  0  0  0
    0.0000    0.0000    0.0000 H   0  0  0  0  0  0  0  0  0  0  0  0
    0.0000    0.0000    0.0000 H   0  0  0  0  0  0  0  0  0  0  0  0
    0.0000    0.0000    0.0000 H   0  0  0  0  0  0  0  0  0  0  0  0
    0.0000    0.0000    0.0000 H   0  0  0  0  0  0  0  0  0  0  0  0
    0.0000    0.0000    0.0000 H   0  0  0  0  0  0  0  0  0  0  0  0
    0.0000    0.0000    0.0000 H   0  0  0  0  0  0  0  0  0  0  0  0
    0.0000    0.0000    0.0000 H   0  0  0  0  0  0  0  0  0  0  0  0
    0.0000    0.0000    0.0000 H   0  0  0  0  0  0  0  0  0  0  0  0
   12.4372    5.2772    9.0814 C   0  0  0  0  0  0  0  0  0  0  0  0
   12.6160    4.1429    8.3158 C   0  0  0  0  0  0  0  0  0  0  0  0
   11.5439    3.7214    7.5577 C   0  0  0  0  0  0  0  0  0  0  0  0
   10.3356    4.4042    7.5609 C   0  0  0  0  0  0  0  0  0  0  0  0
   10.1651    5.5358    8.3281 C   0  0  0  0  0  0  0  0  0  0  0  0
    8.9109    6.2778    8.3560 C   0  0  0  0  0  0  0  0  0  0  0  0
    7.7744    5.8915    7.5972 N   0  0  0  0  0  0  0  0  0  0  0  0
    8.8022    7.2995    9.0676 O   0  0  0  0  0  0  0  0  0  0  0  0
   11.2318    5.9636    9.0885 C   0  0  0  0  0  0  0  0  0  0  0  0
   13.5460    3.5823    8.2873 H   0  0  0  0  0  0  0  0  0  0  0  0
   11.6547    2.8314    6.9446 H   0  0  0  0  0  0  0  0  0  0  0  0
    9.4816    4.0766    6.9632 H   0  0  0  0  0  0  0  0  0  0  0  0
    7.5255    4.8812    7.5517 H   0  0  0  0  0  0  0  0  0  0  0  0
    7.2420    6.6475    7.1197 H   0  0  0  0  0  0  0  0  0  0  0  0
   11.1147    6.8581    9.7023 H   0  0  0  0  0  0  0  0  0  0  0  0
  1  3  2  0
  1  4  1  0
  1  5  1  0
  2  4  1  0
  2  6  1  0
  4  9  1  0
  4 15  1  0
  5  6  1  0
  5  8  1  0
  6  7  2  3
  9 10  2  0
  9 14  1  0
 10 11  1  0
 11 12  2  0
 12 13  1  0
 13 14  2  0
 15 16  2  0
 15 20  1  0
 16 17  1  0
 17 18  2  0
 18 19  1  0
 19 20  2  0
  2 21  1  0
  7 22  1  0
  8 23  1  0
  8 24  1  0
  8 25  1  0
 10 26  1  0
 11 27  1  0
 12 28  1  0
 13 29  1  0
 14 30  1  0
 16 31  1  0
 17 32  1  0
 19 33  1  0
 20 34  1  0
 35 36  2  0
 36 37  1  0
 37 38  2  0
 38 39  1  0
 39 40  1  0
 40 41  1  0
 40 42  2  0
 39 43  2  0
 43 35  1  0
 36 44  1  0
 37 45  1  0
 38 46  1  0
 41 47  1  0
 41 48  1  0
 43 49  1  0
 18 35  1  0
M  END
>  <attachment_point>  (340) 
32

>  <score>  (340) 
<NA>

$$$$
4djw
     RDKit          3D

 50 52  0  0  0  0  0  0  0  0999 V2000
   22.4950   11.8750   22.5810 C   0  0  0  0  0  0  0  0  0  0  0  0
   22.5380    9.4930   22.4640 N   0  0  0  0  0  0  0  0  0  0  0  0
   22.3600   13.0630   22.3480 O   0  0  0  0  0  0  0  0  0  0  0  0
   22.3390   10.6680   21.5610 C   0  0  0  0  0  0  0  0  0  0  0  0
   22.7860   11.3350   23.8120 N   0  0  0  0  0  0  0  0  0  0  0  0
   22.7800    9.9140   23.7010 C   0  0  0  0  0  0  0  0  0  0  0  0
   22.9970    9.1110   24.7490 N   0  0  0  0  0  0  0  0  0  0  0  0
   23.0220   12.1410   25.0180 C   0  0  0  0  0  0  0  0  0  0  0  0
   20.9020   10.6270   21.0050 C   0  0  0  0  0  0  0  0  0  0  0  0
   20.2720    9.4140   20.7470 C   0  0  0  0  0  0  0  0  0  0  0  0
   18.9690    9.3760   20.2600 C   0  0  0  0  0  0  0  0  0  0  0  0
   18.2800   10.5440   20.0210 C   0  0  0  0  0  0  0  0  0  0  0  0
   18.8920   11.7530   20.2590 C   0  0  0  0  0  0  0  0  0  0  0  0
   20.1950   11.7970   20.7440 C   0  0  0  0  0  0  0  0  0  0  0  0
   23.4880   10.6920   20.5300 C   0  0  0  0  0  0  0  0  0  0  0  0
   23.2110   10.7890   19.1730 C   0  0  0  0  0  0  0  0  0  0  0  0
   24.2350   10.8650   18.2430 C   0  0  0  0  0  0  0  0  0  0  0  0
   25.5500   10.8410   18.6560 C   0  0  0  0  0  0  0  0  0  0  0  0
   25.8710   10.7460   20.0070 C   0  0  0  0  0  0  0  0  0  0  0  0
   24.8260   10.6610   20.9430 C   0  0  0  0  0  0  0  0  0  0  0  0
    0.0000    0.0000    0.0000 H   0  0  0  0  0  0  0  0  0  0  0  0
    0.0000    0.0000    0.0000 H   0  0  0  0  0  0  0  0  0  0  0  0
    0.0000    0.0000    0.0000 H   0  0  0  0  0  0  0  0  0  0  0  0
    0.0000    0.0000    0.0000 H   0  0  0  0  0  0  0  0  0  0  0  0
    0.0000    0.0000    0.0000 H   0  0  0  0  0  0  0  0  0  0  0  0
    0.0000    0.0000    0.0000 H   0  0  0  0  0  0  0  0  0  0  0  0
    0.0000    0.0000    0.0000 H   0  0  0  0  0  0  0  0  0  0  0  0
    0.0000    0.0000    0.0000 H   0  0  0  0  0  0  0  0  0  0  0  0
    0.0000    0.0000    0.0000 H   0  0  0  0  0  0  0  0  0  0  0  0
    0.0000    0.0000    0.0000 H   0  0  0  0  0  0  0  0  0  0  0  0
    0.0000    0.0000    0.0000 H   0  0  0  0  0  0  0  0  0  0  0  0
    0.0000    0.0000    0.0000 H   0  0  0  0  0  0  0  0  0  0  0  0
    0.0000    0.0000    0.0000 H   0  0  0  0  0  0  0  0  0  0  0  0
    0.0000    0.0000    0.0000 H   0  0  0  0  0  0  0  0  0  0  0  0
   12.4614    5.2874    9.0990 N   0  0  0  0  0  0  0  0  0  0  0  0
   12.3284    6.2487    7.9961 C   0  0  0  0  0  0  0  0  0  0  0  0
   10.9683    5.7058    6.9690 P   0  0  0  0  0  5  0  0  0  0  0  0
   11.0420    4.2069    6.7762 O   0  0  0  0  0  0  0  0  0  0  0  0
    9.5302    6.0483    7.8344 O   0  0  0  0  0  0  0  0  0  0  0  0
   10.8646    6.4414    5.4925 O   0  0  0  0  0  0  0  0  0  0  0  0
   13.9002    6.3425    7.1604 P   0  0  0  0  0  5  0  0  0  0  0  0
   14.8261    5.2021    7.5975 O   0  0  0  0  0  0  0  0  0  0  0  0
   14.7091    7.7799    7.6076 O   0  0  0  0  0  0  0  0  0  0  0  0
   13.7985    6.2800    5.4940 O   0  0  0  0  0  0  0  0  0  0  0  0
   12.8309    4.3733    8.6978 H   0  0  0  0  0  0  0  0  0  0  0  0
   12.0602    7.2125    8.4547 H   0  0  0  0  0  0  0  0  0  0  0  0
    9.6952    5.9452    8.8248 H   0  0  0  0  0  0  0  0  0  0  0  0
   11.5929    7.0183    5.2300 H   0  0  0  0  0  0  0  0  0  0  0  0
   14.2539    8.2538    8.3258 H   0  0  0  0  0  0  0  0  0  0  0  0
   14.4969    5.7269    5.0868 H   0  0  0  0  0  0  0  0  0  0  0  0
  1  3  2  0
  1  4  1  0
  1  5  1  0
  2  4  1  0
  2  6  1  0
  4  9  1  0
  4 15  1  0
  5  6  1  0
  5  8  1  0
  6  7  2  3
  9 10  2  0
  9 14  1  0
 10 11  1  0
 11 12  2  0
 12 13  1  0
 13 14  2  0
 15 16  2  0
 15 20  1  0
 16 17  1  0
 17 18  2  0
 18 19  1  0
 19 20  2  0
  2 21  1  0
  7 22  1  0
  8 23  1  0
  8 24  1  0
  8 25  1  0
 10 26  1  0
 11 27  1  0
 12 28  1  0
 13 29  1  0
 14 30  1  0
 16 31  1  0
 17 32  1  0
 19 33  1  0
 20 34  1  0
 35 36  1  0
 36 37  1  0
 37 38  2  0
 37 39  1  0
 37 40  1  0
 36 41  1  0
 41 42  2  0
 41 43  1  0
 41 44  1  0
 35 45  1  0
 36 46  1  0
 39 47  1  0
 40 48  1  0
 43 49  1  0
 44 50  1  0
 18 35  1  0
M  END
>  <attachment_point>  (341) 
32

>  <score>  (341) 
<NA>

$$$$
4djw
     RDKit          3D

 46 49  0  0  0  0  0  0  0  0999 V2000
   22.4950   11.8750   22.5810 C   0  0  0  0  0  0  0  0  0  0  0  0
   22.5380    9.4930   22.4640 N   0  0  0  0  0  0  0  0  0  0  0  0
   22.3600   13.0630   22.3480 O   0  0  0  0  0  0  0  0  0  0  0  0
   22.3390   10.6680   21.5610 C   0  0  0  0  0  0  0  0  0  0  0  0
   22.7860   11.3350   23.8120 N   0  0  0  0  0  0  0  0  0  0  0  0
   22.7800    9.9140   23.7010 C   0  0  0  0  0  0  0  0  0  0  0  0
   22.9970    9.1110   24.7490 N   0  0  0  0  0  0  0  0  0  0  0  0
   23.0220   12.1410   25.0180 C   0  0  0  0  0  0  0  0  0  0  0  0
   20.9020   10.6270   21.0050 C   0  0  0  0  0  0  0  0  0  0  0  0
   20.2720    9.4140   20.7470 C   0  0  0  0  0  0  0  0  0  0  0  0
   18.9690    9.3760   20.2600 C   0  0  0  0  0  0  0  0  0  0  0  0
   18.2800   10.5440   20.0210 C   0  0  0  0  0  0  0  0  0  0  0  0
   18.8920   11.7530   20.2590 C   0  0  0  0  0  0  0  0  0  0  0  0
   20.1950   11.7970   20.7440 C   0  0  0  0  0  0  0  0  0  0  0  0
   23.4880   10.6920   20.5300 C   0  0  0  0  0  0  0  0  0  0  0  0
   23.2110   10.7890   19.1730 C   0  0  0  0  0  0  0  0  0  0  0  0
   24.2350   10.8650   18.2430 C   0  0  0  0  0  0  0  0  0  0  0  0
   25.5500   10.8410   18.6560 C   0  0  0  0  0  0  0  0  0  0  0  0
   25.8710   10.7460   20.0070 C   0  0  0  0  0  0  0  0  0  0  0  0
   24.8260   10.6610   20.9430 C   0  0  0  0  0  0  0  0  0  0  0  0
    0.0000    0.0000    0.0000 H   0  0  0  0  0  0  0  0  0  0  0  0
    0.0000    0.0000    0.0000 H   0  0  0  0  0  0  0  0  0  0  0  0
    0.0000    0.0000    0.0000 H   0  0  0  0  0  0  0  0  0  0  0  0
    0.0000    0.0000    0.0000 H   0  0  0  0  0  0  0  0  0  0  0  0
    0.0000    0.0000    0.0000 H   0  0  0  0  0  0  0  0  0  0  0  0
    0.0000    0.0000    0.0000 H   0  0  0  0  0  0  0  0  0  0  0  0
    0.0000    0.0000    0.0000 H   0  0  0  0  0  0  0  0  0  0  0  0
    0.0000    0.0000    0.0000 H   0  0  0  0  0  0  0  0  0  0  0  0
    0.0000    0.0000    0.0000 H   0  0  0  0  0  0  0  0  0  0  0  0
    0.0000    0.0000    0.0000 H   0  0  0  0  0  0  0  0  0  0  0  0
    0.0000    0.0000    0.0000 H   0  0  0  0  0  0  0  0  0  0  0  0
    0.0000    0.0000    0.0000 H   0  0  0  0  0  0  0  0  0  0  0  0
    0.0000    0.0000    0.0000 H   0  0  0  0  0  0  0  0  0  0  0  0
    0.0000    0.0000    0.0000 H   0  0  0  0  0  0  0  0  0  0  0  0
   12.4570    5.2856    9.0958 N   0  0  0  0  0  0  0  0  0  0  0  0
   11.1568    5.1058    9.6420 C   0  0  0  0  0  0  0  0  0  0  0  0
   10.2004    6.0971    9.6626 C   0  0  0  0  0  0  0  0  0  0  0  0
    8.9337    5.8884   10.2061 C   0  0  0  0  0  0  0  0  0  0  0  0
    8.6448    4.6901   10.7205 N   0  0  0  0  0  0  0  0  0  0  0  0
    9.5580    3.6885   10.7195 C   0  0  0  0  0  0  0  0  0  0  0  0
   10.8086    3.8884   10.1850 C   0  0  0  0  0  0  0  0  0  0  0  0
   12.6609    5.0878    8.1014 H   0  0  0  0  0  0  0  0  0  0  0  0
   10.4408    7.0784    9.2400 H   0  0  0  0  0  0  0  0  0  0  0  0
    8.2355    6.7261   10.1825 H   0  0  0  0  0  0  0  0  0  0  0  0
    9.3369    2.7122   11.1333 H   0  0  0  0  0  0  0  0  0  0  0  0
   11.5679    3.1047   10.1676 H   0  0  0  0  0  0  0  0  0  0  0  0
  1  3  2  0
  1  4  1  0
  1  5  1  0
  2  4  1  0
  2  6  1  0
  4  9  1  0
  4 15  1  0
  5  6  1  0
  5  8  1  0
  6  7  2  3
  9 10  2  0
  9 14  1  0
 10 11  1  0
 11 12  2  0
 12 13  1  0
 13 14  2  0
 15 16  2  0
 15 20  1  0
 16 17  1  0
 17 18  2  0
 18 19  1  0
 19 20  2  0
  2 21  1  0
  7 22  1  0
  8 23  1  0
  8 24  1  0
  8 25  1  0
 10 26  1  0
 11 27  1  0
 12 28  1  0
 13 29  1  0
 14 30  1  0
 16 31  1  0
 17 32  1  0
 19 33  1  0
 20 34  1  0
 35 36  1  0
 36 37  2  0
 37 38  1  0
 38 39  2  0
 39 40  1  0
 40 41  2  0
 41 36  1  0
 35 42  1  0
 37 43  1  0
 38 44  1  0
 40 45  1  0
 41 46  1  0
 18 35  1  0
M  END
>  <attachment_point>  (342) 
32

>  <score>  (342) 
<NA>

$$$$
4djw
     RDKit          3D

 43 46  0  0  0  0  0  0  0  0999 V2000
   22.4950   11.8750   22.5810 C   0  0  0  0  0  0  0  0  0  0  0  0
   22.5380    9.4930   22.4640 N   0  0  0  0  0  0  0  0  0  0  0  0
   22.3600   13.0630   22.3480 O   0  0  0  0  0  0  0  0  0  0  0  0
   22.3390   10.6680   21.5610 C   0  0  0  0  0  0  0  0  0  0  0  0
   22.7860   11.3350   23.8120 N   0  0  0  0  0  0  0  0  0  0  0  0
   22.7800    9.9140   23.7010 C   0  0  0  0  0  0  0  0  0  0  0  0
   22.9970    9.1110   24.7490 N   0  0  0  0  0  0  0  0  0  0  0  0
   23.0220   12.1410   25.0180 C   0  0  0  0  0  0  0  0  0  0  0  0
   20.9020   10.6270   21.0050 C   0  0  0  0  0  0  0  0  0  0  0  0
   20.2720    9.4140   20.7470 C   0  0  0  0  0  0  0  0  0  0  0  0
   18.9690    9.3760   20.2600 C   0  0  0  0  0  0  0  0  0  0  0  0
   18.2800   10.5440   20.0210 C   0  0  0  0  0  0  0  0  0  0  0  0
   18.8920   11.7530   20.2590 C   0  0  0  0  0  0  0  0  0  0  0  0
   20.1950   11.7970   20.7440 C   0  0  0  0  0  0  0  0  0  0  0  0
   23.4880   10.6920   20.5300 C   0  0  0  0  0  0  0  0  0  0  0  0
   23.2110   10.7890   19.1730 C   0  0  0  0  0  0  0  0  0  0  0  0
   24.2350   10.8650   18.2430 C   0  0  0  0  0  0  0  0  0  0  0  0
   25.5500   10.8410   18.6560 C   0  0  0  0  0  0  0  0  0  0  0  0
   25.8710   10.7460   20.0070 C   0  0  0  0  0  0  0  0  0  0  0  0
   24.8260   10.6610   20.9430 C   0  0  0  0  0  0  0  0  0  0  0  0
    0.0000    0.0000    0.0000 H   0  0  0  0  0  0  0  0  0  0  0  0
    0.0000    0.0000    0.0000 H   0  0  0  0  0  0  0  0  0  0  0  0
    0.0000    0.0000    0.0000 H   0  0  0  0  0  0  0  0  0  0  0  0
    0.0000    0.0000    0.0000 H   0  0  0  0  0  0  0  0  0  0  0  0
    0.0000    0.0000    0.0000 H   0  0  0  0  0  0  0  0  0  0  0  0
    0.0000    0.0000    0.0000 H   0  0  0  0  0  0  0  0  0  0  0  0
    0.0000    0.0000    0.0000 H   0  0  0  0  0  0  0  0  0  0  0  0
    0.0000    0.0000    0.0000 H   0  0  0  0  0  0  0  0  0  0  0  0
    0.0000    0.0000    0.0000 H   0  0  0  0  0  0  0  0  0  0  0  0
    0.0000    0.0000    0.0000 H   0  0  0  0  0  0  0  0  0  0  0  0
    0.0000    0.0000    0.0000 H   0  0  0  0  0  0  0  0  0  0  0  0
    0.0000    0.0000    0.0000 H   0  0  0  0  0  0  0  0  0  0  0  0
    0.0000    0.0000    0.0000 H   0  0  0  0  0  0  0  0  0  0  0  0
    0.0000    0.0000    0.0000 H   0  0  0  0  0  0  0  0  0  0  0  0
   12.4469    5.2813    9.0884 N   0  0  0  0  0  0  0  0  0  0  0  0
   11.5773    6.0738    8.4453 C   0  0  0  0  0  0  0  0  0  0  0  0
   10.6900    5.2590    7.8006 C   0  0  0  0  0  0  0  0  0  0  0  0
   11.0430    3.9773    8.0685 C   0  0  0  0  0  0  0  0  0  0  0  0
   12.1485    3.9912    8.8789 C   0  0  0  0  0  0  0  0  0  0  0  0
   11.5947    7.1393    8.4504 H   0  0  0  0  0  0  0  0  0  0  0  0
    9.8639    5.5791    7.1926 H   0  0  0  0  0  0  0  0  0  0  0  0
   10.5649    3.0734    7.7245 H   0  0  0  0  0  0  0  0  0  0  0  0
   12.6887    3.1640    9.2809 H   0  0  0  0  0  0  0  0  0  0  0  0
  1  3  2  0
  1  4  1  0
  1  5  1  0
  2  4  1  0
  2  6  1  0
  4  9  1  0
  4 15  1  0
  5  6  1  0
  5  8  1  0
  6  7  2  3
  9 10  2  0
  9 14  1  0
 10 11  1  0
 11 12  2  0
 12 13  1  0
 13 14  2  0
 15 16  2  0
 15 20  1  0
 16 17  1  0
 17 18  2  0
 18 19  1  0
 19 20  2  0
  2 21  1  0
  7 22  1  0
  8 23  1  0
  8 24  1  0
  8 25  1  0
 10 26  1  0
 11 27  1  0
 12 28  1  0
 13 29  1  0
 14 30  1  0
 16 31  1  0
 17 32  1  0
 19 33  1  0
 20 34  1  0
 35 36  1  0
 36 37  2  0
 37 38  1  0
 38 39  2  0
 39 35  1  0
 36 40  1  0
 37 41  1  0
 38 42  1  0
 39 43  1  0
 18 35  1  0
M  END
>  <attachment_point>  (343) 
32

>  <score>  (343) 
<NA>

$$$$
4djw
     RDKit          3D

 55 58  0  0  0  0  0  0  0  0999 V2000
   22.4950   11.8750   22.5810 C   0  0  0  0  0  0  0  0  0  0  0  0
   22.5380    9.4930   22.4640 N   0  0  0  0  0  0  0  0  0  0  0  0
   22.3600   13.0630   22.3480 O   0  0  0  0  0  0  0  0  0  0  0  0
   22.3390   10.6680   21.5610 C   0  0  0  0  0  0  0  0  0  0  0  0
   22.7860   11.3350   23.8120 N   0  0  0  0  0  0  0  0  0  0  0  0
   22.7800    9.9140   23.7010 C   0  0  0  0  0  0  0  0  0  0  0  0
   22.9970    9.1110   24.7490 N   0  0  0  0  0  0  0  0  0  0  0  0
   23.0220   12.1410   25.0180 C   0  0  0  0  0  0  0  0  0  0  0  0
   20.9020   10.6270   21.0050 C   0  0  0  0  0  0  0  0  0  0  0  0
   20.2720    9.4140   20.7470 C   0  0  0  0  0  0  0  0  0  0  0  0
   18.9690    9.3760   20.2600 C   0  0  0  0  0  0  0  0  0  0  0  0
   18.2800   10.5440   20.0210 C   0  0  0  0  0  0  0  0  0  0  0  0
   18.8920   11.7530   20.2590 C   0  0  0  0  0  0  0  0  0  0  0  0
   20.1950   11.7970   20.7440 C   0  0  0  0  0  0  0  0  0  0  0  0
   23.4880   10.6920   20.5300 C   0  0  0  0  0  0  0  0  0  0  0  0
   23.2110   10.7890   19.1730 C   0  0  0  0  0  0  0  0  0  0  0  0
   24.2350   10.8650   18.2430 C   0  0  0  0  0  0  0  0  0  0  0  0
   25.5500   10.8410   18.6560 C   0  0  0  0  0  0  0  0  0  0  0  0
   25.8710   10.7460   20.0070 C   0  0  0  0  0  0  0  0  0  0  0  0
   24.8260   10.6610   20.9430 C   0  0  0  0  0  0  0  0  0  0  0  0
    0.0000    0.0000    0.0000 H   0  0  0  0  0  0  0  0  0  0  0  0
    0.0000    0.0000    0.0000 H   0  0  0  0  0  0  0  0  0  0  0  0
    0.0000    0.0000    0.0000 H   0  0  0  0  0  0  0  0  0  0  0  0
    0.0000    0.0000    0.0000 H   0  0  0  0  0  0  0  0  0  0  0  0
    0.0000    0.0000    0.0000 H   0  0  0  0  0  0  0  0  0  0  0  0
    0.0000    0.0000    0.0000 H   0  0  0  0  0  0  0  0  0  0  0  0
    0.0000    0.0000    0.0000 H   0  0  0  0  0  0  0  0  0  0  0  0
    0.0000    0.0000    0.0000 H   0  0  0  0  0  0  0  0  0  0  0  0
    0.0000    0.0000    0.0000 H   0  0  0  0  0  0  0  0  0  0  0  0
    0.0000    0.0000    0.0000 H   0  0  0  0  0  0  0  0  0  0  0  0
    0.0000    0.0000    0.0000 H   0  0  0  0  0  0  0  0  0  0  0  0
    0.0000    0.0000    0.0000 H   0  0  0  0  0  0  0  0  0  0  0  0
    0.0000    0.0000    0.0000 H   0  0  0  0  0  0  0  0  0  0  0  0
    0.0000    0.0000    0.0000 H   0  0  0  0  0  0  0  0  0  0  0  0
   12.4051    5.2635    9.0579 C   0  0  0  0  0  0  0  0  0  0  0  0
   12.5423    3.8002    9.0968 C   0  0  0  0  0  0  0  0  0  0  0  0
   11.5550    3.0991   10.0093 C   0  0  0  0  0  0  0  0  0  0  0  0
   10.2425    3.5990    9.6723 N   0  0  0  0  0  0  0  0  0  0  0  0
    9.2597    2.6639    9.2623 C   0  0  0  0  0  0  0  0  0  0  0  0
    7.9103    3.2065    8.9191 C   0  0  0  0  0  0  0  0  0  0  0  0
    9.5075    1.4278    9.1885 O   0  0  0  0  0  0  0  0  0  0  0  0
    9.9958    5.0001    9.7662 C   0  0  0  0  0  0  0  0  0  0  0  0
   11.1646    5.8758    9.5085 C   0  0  0  0  0  0  0  0  0  0  0  0
   12.7693    5.6574    8.0789 H   0  0  0  0  0  0  0  0  0  0  0  0
   12.4253    3.4081    8.0435 H   0  0  0  0  0  0  0  0  0  0  0  0
   13.5530    3.4431    9.4078 H   0  0  0  0  0  0  0  0  0  0  0  0
   11.6575    2.0164    9.8228 H   0  0  0  0  0  0  0  0  0  0  0  0
   11.7712    3.3913   11.0388 H   0  0  0  0  0  0  0  0  0  0  0  0
    7.2191    2.3439    8.8556 H   0  0  0  0  0  0  0  0  0  0  0  0
    7.6110    3.9082    9.7162 H   0  0  0  0  0  0  0  0  0  0  0  0
    7.9733    3.7696    7.9576 H   0  0  0  0  0  0  0  0  0  0  0  0
    9.1305    5.2234    9.0724 H   0  0  0  0  0  0  0  0  0  0  0  0
    9.5542    5.1832   10.7912 H   0  0  0  0  0  0  0  0  0  0  0  0
   11.3529    6.4937   10.4374 H   0  0  0  0  0  0  0  0  0  0  0  0
   10.8437    6.6518    8.7510 H   0  0  0  0  0  0  0  0  0  0  0  0
  1  3  2  0
  1  4  1  0
  1  5  1  0
  2  4  1  0
  2  6  1  0
  4  9  1  0
  4 15  1  0
  5  6  1  0
  5  8  1  0
  6  7  2  3
  9 10  2  0
  9 14  1  0
 10 11  1  0
 11 12  2  0
 12 13  1  0
 13 14  2  0
 15 16  2  0
 15 20  1  0
 16 17  1  0
 17 18  2  0
 18 19  1  0
 19 20  2  0
  2 21  1  0
  7 22  1  0
  8 23  1  0
  8 24  1  0
  8 25  1  0
 10 26  1  0
 11 27  1  0
 12 28  1  0
 13 29  1  0
 14 30  1  0
 16 31  1  0
 17 32  1  0
 19 33  1  0
 20 34  1  0
 35 36  1  0
 36 37  1  0
 37 38  1  0
 38 39  1  0
 39 40  1  0
 39 41  2  0
 38 42  1  0
 42 43  1  0
 43 35  1  0
 35 44  1  0
 36 45  1  0
 36 46  1  0
 37 47  1  0
 37 48  1  0
 40 49  1  0
 40 50  1  0
 40 51  1  0
 42 52  1  0
 42 53  1  0
 43 54  1  0
 43 55  1  0
 18 35  1  0
M  END
>  <attachment_point>  (344) 
32

>  <score>  (344) 
<NA>

$$$$
4djw
     RDKit          3D

 48 51  0  0  0  0  0  0  0  0999 V2000
   22.4950   11.8750   22.5810 C   0  0  0  0  0  0  0  0  0  0  0  0
   22.5380    9.4930   22.4640 N   0  0  0  0  0  0  0  0  0  0  0  0
   22.3600   13.0630   22.3480 O   0  0  0  0  0  0  0  0  0  0  0  0
   22.3390   10.6680   21.5610 C   0  0  0  0  0  0  0  0  0  0  0  0
   22.7860   11.3350   23.8120 N   0  0  0  0  0  0  0  0  0  0  0  0
   22.7800    9.9140   23.7010 C   0  0  0  0  0  0  0  0  0  0  0  0
   22.9970    9.1110   24.7490 N   0  0  0  0  0  0  0  0  0  0  0  0
   23.0220   12.1410   25.0180 C   0  0  0  0  0  0  0  0  0  0  0  0
   20.9020   10.6270   21.0050 C   0  0  0  0  0  0  0  0  0  0  0  0
   20.2720    9.4140   20.7470 C   0  0  0  0  0  0  0  0  0  0  0  0
   18.9690    9.3760   20.2600 C   0  0  0  0  0  0  0  0  0  0  0  0
   18.2800   10.5440   20.0210 C   0  0  0  0  0  0  0  0  0  0  0  0
   18.8920   11.7530   20.2590 C   0  0  0  0  0  0  0  0  0  0  0  0
   20.1950   11.7970   20.7440 C   0  0  0  0  0  0  0  0  0  0  0  0
   23.4880   10.6920   20.5300 C   0  0  0  0  0  0  0  0  0  0  0  0
   23.2110   10.7890   19.1730 C   0  0  0  0  0  0  0  0  0  0  0  0
   24.2350   10.8650   18.2430 C   0  0  0  0  0  0  0  0  0  0  0  0
   25.5500   10.8410   18.6560 C   0  0  0  0  0  0  0  0  0  0  0  0
   25.8710   10.7460   20.0070 C   0  0  0  0  0  0  0  0  0  0  0  0
   24.8260   10.6610   20.9430 C   0  0  0  0  0  0  0  0  0  0  0  0
    0.0000    0.0000    0.0000 H   0  0  0  0  0  0  0  0  0  0  0  0
    0.0000    0.0000    0.0000 H   0  0  0  0  0  0  0  0  0  0  0  0
    0.0000    0.0000    0.0000 H   0  0  0  0  0  0  0  0  0  0  0  0
    0.0000    0.0000    0.0000 H   0  0  0  0  0  0  0  0  0  0  0  0
    0.0000    0.0000    0.0000 H   0  0  0  0  0  0  0  0  0  0  0  0
    0.0000    0.0000    0.0000 H   0  0  0  0  0  0  0  0  0  0  0  0
    0.0000    0.0000    0.0000 H   0  0  0  0  0  0  0  0  0  0  0  0
    0.0000    0.0000    0.0000 H   0  0  0  0  0  0  0  0  0  0  0  0
    0.0000    0.0000    0.0000 H   0  0  0  0  0  0  0  0  0  0  0  0
    0.0000    0.0000    0.0000 H   0  0  0  0  0  0  0  0  0  0  0  0
    0.0000    0.0000    0.0000 H   0  0  0  0  0  0  0  0  0  0  0  0
    0.0000    0.0000    0.0000 H   0  0  0  0  0  0  0  0  0  0  0  0
    0.0000    0.0000    0.0000 H   0  0  0  0  0  0  0  0  0  0  0  0
    0.0000    0.0000    0.0000 H   0  0  0  0  0  0  0  0  0  0  0  0
   12.3040    5.2207    8.9841 C   0  0  0  0  0  0  0  0  0  0  0  0
   12.9858    4.0887    8.5037 N   0  0  0  0  0  0  0  0  0  0  0  0
   13.7486    3.9058    7.4380 N   0  0  0  0  0  0  0  0  0  0  0  0
   14.1933    2.6610    7.3718 C   0  0  0  0  0  0  0  0  0  0  0  0
   15.0127    2.1529    6.3791 O   0  0  0  0  0  0  0  0  0  0  0  0
   15.4773    2.9343    5.2948 C   0  0  0  0  0  0  0  0  0  0  0  0
   13.7077    2.0445    8.4076 O   0  0  0  0  0  0  0  0  0  0  0  0
   12.9740    2.8781    9.1119 C   0  0  0  0  0  0  0  0  0  0  0  0
   12.3832    2.5365   10.1729 O   0  0  0  0  0  0  0  0  0  0  0  0
   12.3424    6.1324    8.4371 H   0  0  0  0  0  0  0  0  0  0  0  0
   11.7690    5.1533    9.9024 H   0  0  0  0  0  0  0  0  0  0  0  0
   15.5353    3.9840    5.6423 H   0  0  0  0  0  0  0  0  0  0  0  0
   14.7393    2.8998    4.4545 H   0  0  0  0  0  0  0  0  0  0  0  0
   16.4904    2.6264    4.9658 H   0  0  0  0  0  0  0  0  0  0  0  0
  1  3  2  0
  1  4  1  0
  1  5  1  0
  2  4  1  0
  2  6  1  0
  4  9  1  0
  4 15  1  0
  5  6  1  0
  5  8  1  0
  6  7  2  3
  9 10  2  0
  9 14  1  0
 10 11  1  0
 11 12  2  0
 12 13  1  0
 13 14  2  0
 15 16  2  0
 15 20  1  0
 16 17  1  0
 17 18  2  0
 18 19  1  0
 19 20  2  0
  2 21  1  0
  7 22  1  0
  8 23  1  0
  8 24  1  0
  8 25  1  0
 10 26  1  0
 11 27  1  0
 12 28  1  0
 13 29  1  0
 14 30  1  0
 16 31  1  0
 17 32  1  0
 19 33  1  0
 20 34  1  0
 35 36  1  0
 36 37  1  0
 37 38  2  0
 38 39  1  0
 39 40  1  0
 38 41  1  0
 41 42  1  0
 42 43  2  0
 42 36  1  0
 35 44  1  0
 35 45  1  0
 40 46  1  0
 40 47  1  0
 40 48  1  0
 18 35  1  0
M  END
>  <attachment_point>  (345) 
32

>  <score>  (345) 
<NA>

$$$$
4djw
     RDKit          3D

 44 46  0  0  0  0  0  0  0  0999 V2000
   22.4950   11.8750   22.5810 C   0  0  0  0  0  0  0  0  0  0  0  0
   22.5380    9.4930   22.4640 N   0  0  0  0  0  0  0  0  0  0  0  0
   22.3600   13.0630   22.3480 O   0  0  0  0  0  0  0  0  0  0  0  0
   22.3390   10.6680   21.5610 C   0  0  0  0  0  0  0  0  0  0  0  0
   22.7860   11.3350   23.8120 N   0  0  0  0  0  0  0  0  0  0  0  0
   22.7800    9.9140   23.7010 C   0  0  0  0  0  0  0  0  0  0  0  0
   22.9970    9.1110   24.7490 N   0  0  0  0  0  0  0  0  0  0  0  0
   23.0220   12.1410   25.0180 C   0  0  0  0  0  0  0  0  0  0  0  0
   20.9020   10.6270   21.0050 C   0  0  0  0  0  0  0  0  0  0  0  0
   20.2720    9.4140   20.7470 C   0  0  0  0  0  0  0  0  0  0  0  0
   18.9690    9.3760   20.2600 C   0  0  0  0  0  0  0  0  0  0  0  0
   18.2800   10.5440   20.0210 C   0  0  0  0  0  0  0  0  0  0  0  0
   18.8920   11.7530   20.2590 C   0  0  0  0  0  0  0  0  0  0  0  0
   20.1950   11.7970   20.7440 C   0  0  0  0  0  0  0  0  0  0  0  0
   23.4880   10.6920   20.5300 C   0  0  0  0  0  0  0  0  0  0  0  0
   23.2110   10.7890   19.1730 C   0  0  0  0  0  0  0  0  0  0  0  0
   24.2350   10.8650   18.2430 C   0  0  0  0  0  0  0  0  0  0  0  0
   25.5500   10.8410   18.6560 C   0  0  0  0  0  0  0  0  0  0  0  0
   25.8710   10.7460   20.0070 C   0  0  0  0  0  0  0  0  0  0  0  0
   24.8260   10.6610   20.9430 C   0  0  0  0  0  0  0  0  0  0  0  0
    0.0000    0.0000    0.0000 H   0  0  0  0  0  0  0  0  0  0  0  0
    0.0000    0.0000    0.0000 H   0  0  0  0  0  0  0  0  0  0  0  0
    0.0000    0.0000    0.0000 H   0  0  0  0  0  0  0  0  0  0  0  0
    0.0000    0.0000    0.0000 H   0  0  0  0  0  0  0  0  0  0  0  0
    0.0000    0.0000    0.0000 H   0  0  0  0  0  0  0  0  0  0  0  0
    0.0000    0.0000    0.0000 H   0  0  0  0  0  0  0  0  0  0  0  0
    0.0000    0.0000    0.0000 H   0  0  0  0  0  0  0  0  0  0  0  0
    0.0000    0.0000    0.0000 H   0  0  0  0  0  0  0  0  0  0  0  0
    0.0000    0.0000    0.0000 H   0  0  0  0  0  0  0  0  0  0  0  0
    0.0000    0.0000    0.0000 H   0  0  0  0  0  0  0  0  0  0  0  0
    0.0000    0.0000    0.0000 H   0  0  0  0  0  0  0  0  0  0  0  0
    0.0000    0.0000    0.0000 H   0  0  0  0  0  0  0  0  0  0  0  0
    0.0000    0.0000    0.0000 H   0  0  0  0  0  0  0  0  0  0  0  0
    0.0000    0.0000    0.0000 H   0  0  0  0  0  0  0  0  0  0  0  0
   12.4586    5.2863    9.0970 C   0  0  0  0  0  0  0  0  0  0  0  0
   12.6569    5.6049    7.3511 S   0  0  0  0  0  6  0  0  0  0  0  0
   12.7994    7.3415    7.1045 C   0  0  0  0  0  0  0  0  0  0  0  0
   11.4612    5.0838    6.6555 O   0  0  0  0  0  0  0  0  0  0  0  0
   13.9110    4.9599    6.8299 O   0  0  0  0  0  0  0  0  0  0  0  0
   12.1935    4.2290    9.2775 H   0  0  0  0  0  0  0  0  0  0  0  0
   11.5463    5.8769    9.4013 H   0  0  0  0  0  0  0  0  0  0  0  0
   13.8366    7.6749    7.2835 H   0  0  0  0  0  0  0  0  0  0  0  0
   12.4607    7.5872    6.0565 H   0  0  0  0  0  0  0  0  0  0  0  0
   12.0552    7.8388    7.7608 H   0  0  0  0  0  0  0  0  0  0  0  0
  1  3  2  0
  1  4  1  0
  1  5  1  0
  2  4  1  0
  2  6  1  0
  4  9  1  0
  4 15  1  0
  5  6  1  0
  5  8  1  0
  6  7  2  3
  9 10  2  0
  9 14  1  0
 10 11  1  0
 11 12  2  0
 12 13  1  0
 13 14  2  0
 15 16  2  0
 15 20  1  0
 16 17  1  0
 17 18  2  0
 18 19  1  0
 19 20  2  0
  2 21  1  0
  7 22  1  0
  8 23  1  0
  8 24  1  0
  8 25  1  0
 10 26  1  0
 11 27  1  0
 12 28  1  0
 13 29  1  0
 14 30  1  0
 16 31  1  0
 17 32  1  0
 19 33  1  0
 20 34  1  0
 35 36  1  0
 36 37  1  0
 36 38  2  0
 36 39  2  0
 35 40  1  0
 35 41  1  0
 37 42  1  0
 37 43  1  0
 37 44  1  0
 18 35  1  0
M  END
>  <attachment_point>  (346) 
32

>  <score>  (346) 
<NA>

$$$$
4djw
     RDKit          3D

 57 61  0  0  0  0  0  0  0  0999 V2000
   22.4950   11.8750   22.5810 C   0  0  0  0  0  0  0  0  0  0  0  0
   22.5380    9.4930   22.4640 N   0  0  0  0  0  0  0  0  0  0  0  0
   22.3600   13.0630   22.3480 O   0  0  0  0  0  0  0  0  0  0  0  0
   22.3390   10.6680   21.5610 C   0  0  0  0  0  0  0  0  0  0  0  0
   22.7860   11.3350   23.8120 N   0  0  0  0  0  0  0  0  0  0  0  0
   22.7800    9.9140   23.7010 C   0  0  0  0  0  0  0  0  0  0  0  0
   22.9970    9.1110   24.7490 N   0  0  0  0  0  0  0  0  0  0  0  0
   23.0220   12.1410   25.0180 C   0  0  0  0  0  0  0  0  0  0  0  0
   20.9020   10.6270   21.0050 C   0  0  0  0  0  0  0  0  0  0  0  0
   20.2720    9.4140   20.7470 C   0  0  0  0  0  0  0  0  0  0  0  0
   18.9690    9.3760   20.2600 C   0  0  0  0  0  0  0  0  0  0  0  0
   18.2800   10.5440   20.0210 C   0  0  0  0  0  0  0  0  0  0  0  0
   18.8920   11.7530   20.2590 C   0  0  0  0  0  0  0  0  0  0  0  0
   20.1950   11.7970   20.7440 C   0  0  0  0  0  0  0  0  0  0  0  0
   23.4880   10.6920   20.5300 C   0  0  0  0  0  0  0  0  0  0  0  0
   23.2110   10.7890   19.1730 C   0  0  0  0  0  0  0  0  0  0  0  0
   24.2350   10.8650   18.2430 C   0  0  0  0  0  0  0  0  0  0  0  0
   25.5500   10.8410   18.6560 C   0  0  0  0  0  0  0  0  0  0  0  0
   25.8710   10.7460   20.0070 C   0  0  0  0  0  0  0  0  0  0  0  0
   24.8260   10.6610   20.9430 C   0  0  0  0  0  0  0  0  0  0  0  0
    0.0000    0.0000    0.0000 H   0  0  0  0  0  0  0  0  0  0  0  0
    0.0000    0.0000    0.0000 H   0  0  0  0  0  0  0  0  0  0  0  0
    0.0000    0.0000    0.0000 H   0  0  0  0  0  0  0  0  0  0  0  0
    0.0000    0.0000    0.0000 H   0  0  0  0  0  0  0  0  0  0  0  0
    0.0000    0.0000    0.0000 H   0  0  0  0  0  0  0  0  0  0  0  0
    0.0000    0.0000    0.0000 H   0  0  0  0  0  0  0  0  0  0  0  0
    0.0000    0.0000    0.0000 H   0  0  0  0  0  0  0  0  0  0  0  0
    0.0000    0.0000    0.0000 H   0  0  0  0  0  0  0  0  0  0  0  0
    0.0000    0.0000    0.0000 H   0  0  0  0  0  0  0  0  0  0  0  0
    0.0000    0.0000    0.0000 H   0  0  0  0  0  0  0  0  0  0  0  0
    0.0000    0.0000    0.0000 H   0  0  0  0  0  0  0  0  0  0  0  0
    0.0000    0.0000    0.0000 H   0  0  0  0  0  0  0  0  0  0  0  0
    0.0000    0.0000    0.0000 H   0  0  0  0  0  0  0  0  0  0  0  0
    0.0000    0.0000    0.0000 H   0  0  0  0  0  0  0  0  0  0  0  0
   12.4689    5.2906    9.1045 C   0  0  0  0  0  0  0  0  0  0  0  0
   12.3290    3.8418    9.0633 N   0  0  0  0  0  0  0  0  0  0  0  0
   11.2041    3.4540    8.2386 C   0  0  1  0  0  0  0  0  0  0  0  0
   10.8576    2.0270    8.0419 C   0  0  0  0  0  0  0  0  0  0  0  0
    9.9305    2.9846    8.8177 C   0  0  1  0  0  0  0  0  0  0  0  0
    9.7823    2.6018   10.2214 C   0  0  0  0  0  0  0  0  0  0  0  0
   10.8246    2.1319   11.0042 C   0  0  0  0  0  0  0  0  0  0  0  0
   10.5961    1.7966   12.3141 C   0  0  0  0  0  0  0  0  0  0  0  0
    9.3730    1.8969   12.9205 C   0  0  0  0  0  0  0  0  0  0  0  0
    8.3216    2.3666   12.1449 C   0  0  0  0  0  0  0  0  0  0  0  0
    8.5490    2.7040   10.8283 C   0  0  0  0  0  0  0  0  0  0  0  0
   12.6842    5.5918    8.0368 H   0  0  0  0  0  0  0  0  0  0  0  0
   11.5096    5.7887    9.3479 H   0  0  0  0  0  0  0  0  0  0  0  0
   13.2279    3.4342    8.7276 H   0  0  0  0  0  0  0  0  0  0  0  0
   11.1212    4.0790    7.3233 H   0  0  0  0  0  0  0  0  0  0  0  0
   11.4546    1.3031    8.5948 H   0  0  0  0  0  0  0  0  0  0  0  0
   10.4210    1.6840    7.0809 H   0  0  0  0  0  0  0  0  0  0  0  0
    8.9982    3.3084    8.3185 H   0  0  0  0  0  0  0  0  0  0  0  0
   11.7876    2.0527   10.5249 H   0  0  0  0  0  0  0  0  0  0  0  0
   11.4591    1.4313   12.8826 H   0  0  0  0  0  0  0  0  0  0  0  0
    9.2082    1.6264   13.9621 H   0  0  0  0  0  0  0  0  0  0  0  0
    7.3603    2.4420   12.6323 H   0  0  0  0  0  0  0  0  0  0  0  0
    7.7006    3.0739   10.2336 H   0  0  0  0  0  0  0  0  0  0  0  0
  1  3  2  0
  1  4  1  0
  1  5  1  0
  2  4  1  0
  2  6  1  0
  4  9  1  0
  4 15  1  0
  5  6  1  0
  5  8  1  0
  6  7  2  3
  9 10  2  0
  9 14  1  0
 10 11  1  0
 11 12  2  0
 12 13  1  0
 13 14  2  0
 15 16  2  0
 15 20  1  0
 16 17  1  0
 17 18  2  0
 18 19  1  0
 19 20  2  0
  2 21  1  0
  7 22  1  0
  8 23  1  0
  8 24  1  0
  8 25  1  0
 10 26  1  0
 11 27  1  0
 12 28  1  0
 13 29  1  0
 14 30  1  0
 16 31  1  0
 17 32  1  0
 19 33  1  0
 20 34  1  0
 35 36  1  0
 36 37  1  0
 37 38  1  0
 38 39  1  0
 39 40  1  0
 40 41  2  0
 41 42  1  0
 42 43  2  0
 43 44  1  0
 44 45  2  0
 39 37  1  0
 45 40  1  0
 35 46  1  0
 35 47  1  0
 36 48  1  0
 37 49  1  6
 38 50  1  0
 38 51  1  0
 39 52  1  6
 41 53  1  0
 42 54  1  0
 43 55  1  0
 44 56  1  0
 45 57  1  0
 18 35  1  0
M  END
>  <attachment_point>  (347) 
32

>  <score>  (347) 
<NA>

$$$$
4djw
     RDKit          3D

 55 59  0  0  0  0  0  0  0  0999 V2000
   22.4950   11.8750   22.5810 C   0  0  0  0  0  0  0  0  0  0  0  0
   22.5380    9.4930   22.4640 N   0  0  0  0  0  0  0  0  0  0  0  0
   22.3600   13.0630   22.3480 O   0  0  0  0  0  0  0  0  0  0  0  0
   22.3390   10.6680   21.5610 C   0  0  0  0  0  0  0  0  0  0  0  0
   22.7860   11.3350   23.8120 N   0  0  0  0  0  0  0  0  0  0  0  0
   22.7800    9.9140   23.7010 C   0  0  0  0  0  0  0  0  0  0  0  0
   22.9970    9.1110   24.7490 N   0  0  0  0  0  0  0  0  0  0  0  0
   23.0220   12.1410   25.0180 C   0  0  0  0  0  0  0  0  0  0  0  0
   20.9020   10.6270   21.0050 C   0  0  0  0  0  0  0  0  0  0  0  0
   20.2720    9.4140   20.7470 C   0  0  0  0  0  0  0  0  0  0  0  0
   18.9690    9.3760   20.2600 C   0  0  0  0  0  0  0  0  0  0  0  0
   18.2800   10.5440   20.0210 C   0  0  0  0  0  0  0  0  0  0  0  0
   18.8920   11.7530   20.2590 C   0  0  0  0  0  0  0  0  0  0  0  0
   20.1950   11.7970   20.7440 C   0  0  0  0  0  0  0  0  0  0  0  0
   23.4880   10.6920   20.5300 C   0  0  0  0  0  0  0  0  0  0  0  0
   23.2110   10.7890   19.1730 C   0  0  0  0  0  0  0  0  0  0  0  0
   24.2350   10.8650   18.2430 C   0  0  0  0  0  0  0  0  0  0  0  0
   25.5500   10.8410   18.6560 C   0  0  0  0  0  0  0  0  0  0  0  0
   25.8710   10.7460   20.0070 C   0  0  0  0  0  0  0  0  0  0  0  0
   24.8260   10.6610   20.9430 C   0  0  0  0  0  0  0  0  0  0  0  0
    0.0000    0.0000    0.0000 H   0  0  0  0  0  0  0  0  0  0  0  0
    0.0000    0.0000    0.0000 H   0  0  0  0  0  0  0  0  0  0  0  0
    0.0000    0.0000    0.0000 H   0  0  0  0  0  0  0  0  0  0  0  0
    0.0000    0.0000    0.0000 H   0  0  0  0  0  0  0  0  0  0  0  0
    0.0000    0.0000    0.0000 H   0  0  0  0  0  0  0  0  0  0  0  0
    0.0000    0.0000    0.0000 H   0  0  0  0  0  0  0  0  0  0  0  0
    0.0000    0.0000    0.0000 H   0  0  0  0  0  0  0  0  0  0  0  0
    0.0000    0.0000    0.0000 H   0  0  0  0  0  0  0  0  0  0  0  0
    0.0000    0.0000    0.0000 H   0  0  0  0  0  0  0  0  0  0  0  0
    0.0000    0.0000    0.0000 H   0  0  0  0  0  0  0  0  0  0  0  0
    0.0000    0.0000    0.0000 H   0  0  0  0  0  0  0  0  0  0  0  0
    0.0000    0.0000    0.0000 H   0  0  0  0  0  0  0  0  0  0  0  0
    0.0000    0.0000    0.0000 H   0  0  0  0  0  0  0  0  0  0  0  0
    0.0000    0.0000    0.0000 H   0  0  0  0  0  0  0  0  0  0  0  0
   12.4180    5.2690    9.0673 C   0  0  0  0  0  0  0  0  0  0  0  0
   11.5545    4.3832    9.6596 C   0  0  0  0  0  0  0  0  0  0  0  0
   10.4936    3.9393    8.8686 C   0  0  0  0  0  0  0  0  0  0  0  0
   10.3003    4.3484    7.5693 C   0  0  0  0  0  0  0  0  0  0  0  0
   11.1920    5.2394    7.0142 C   0  0  0  0  0  0  0  0  0  0  0  0
   11.0516    5.7178    5.6403 C   0  0  0  0  0  0  0  0  0  0  0  0
    9.8175    5.8674    5.0636 C   0  0  0  0  0  0  0  0  0  0  0  0
    9.7714    6.3259    3.7604 C   0  0  0  0  0  0  0  0  0  0  0  0
   10.9048    6.6300    3.0418 C   0  0  0  0  0  0  0  0  0  0  0  0
   12.1619    6.4791    3.6245 C   0  0  0  0  0  0  0  0  0  0  0  0
   12.1847    6.0203    4.9261 C   0  0  0  0  0  0  0  0  0  0  0  0
   12.2692    5.7048    7.7834 C   0  0  0  0  0  0  0  0  0  0  0  0
   11.6831    4.0417   10.6857 H   0  0  0  0  0  0  0  0  0  0  0  0
    9.7708    3.2347    9.2779 H   0  0  0  0  0  0  0  0  0  0  0  0
    9.4753    4.0020    6.9585 H   0  0  0  0  0  0  0  0  0  0  0  0
    8.8951    5.6354    5.6030 H   0  0  0  0  0  0  0  0  0  0  0  0
    8.8057    6.4471    3.2906 H   0  0  0  0  0  0  0  0  0  0  0  0
   10.8712    6.9893    2.0158 H   0  0  0  0  0  0  0  0  0  0  0  0
   13.0746    6.7118    3.0808 H   0  0  0  0  0  0  0  0  0  0  0  0
   13.1434    5.8946    5.4041 H   0  0  0  0  0  0  0  0  0  0  0  0
   12.9934    6.4017    7.3938 H   0  0  0  0  0  0  0  0  0  0  0  0
  1  3  2  0
  1  4  1  0
  1  5  1  0
  2  4  1  0
  2  6  1  0
  4  9  1  0
  4 15  1  0
  5  6  1  0
  5  8  1  0
  6  7  2  3
  9 10  2  0
  9 14  1  0
 10 11  1  0
 11 12  2  0
 12 13  1  0
 13 14  2  0
 15 16  2  0
 15 20  1  0
 16 17  1  0
 17 18  2  0
 18 19  1  0
 19 20  2  0
  2 21  1  0
  7 22  1  0
  8 23  1  0
  8 24  1  0
  8 25  1  0
 10 26  1  0
 11 27  1  0
 12 28  1  0
 13 29  1  0
 14 30  1  0
 16 31  1  0
 17 32  1  0
 19 33  1  0
 20 34  1  0
 35 36  2  0
 36 37  1  0
 37 38  2  0
 38 39  1  0
 39 40  1  0
 40 41  2  0
 41 42  1  0
 42 43  2  0
 43 44  1  0
 44 45  2  0
 39 46  2  0
 46 35  1  0
 45 40  1  0
 36 47  1  0
 37 48  1  0
 38 49  1  0
 41 50  1  0
 42 51  1  0
 43 52  1  0
 44 53  1  0
 45 54  1  0
 46 55  1  0
 18 35  1  0
M  END
>  <attachment_point>  (348) 
32

>  <score>  (348) 
<NA>

$$$$
4djw
     RDKit          3D

 44 46  0  0  0  0  0  0  0  0999 V2000
   22.4950   11.8750   22.5810 C   0  0  0  0  0  0  0  0  0  0  0  0
   22.5380    9.4930   22.4640 N   0  0  0  0  0  0  0  0  0  0  0  0
   22.3600   13.0630   22.3480 O   0  0  0  0  0  0  0  0  0  0  0  0
   22.3390   10.6680   21.5610 C   0  0  0  0  0  0  0  0  0  0  0  0
   22.7860   11.3350   23.8120 N   0  0  0  0  0  0  0  0  0  0  0  0
   22.7800    9.9140   23.7010 C   0  0  0  0  0  0  0  0  0  0  0  0
   22.9970    9.1110   24.7490 N   0  0  0  0  0  0  0  0  0  0  0  0
   23.0220   12.1410   25.0180 C   0  0  0  0  0  0  0  0  0  0  0  0
   20.9020   10.6270   21.0050 C   0  0  0  0  0  0  0  0  0  0  0  0
   20.2720    9.4140   20.7470 C   0  0  0  0  0  0  0  0  0  0  0  0
   18.9690    9.3760   20.2600 C   0  0  0  0  0  0  0  0  0  0  0  0
   18.2800   10.5440   20.0210 C   0  0  0  0  0  0  0  0  0  0  0  0
   18.8920   11.7530   20.2590 C   0  0  0  0  0  0  0  0  0  0  0  0
   20.1950   11.7970   20.7440 C   0  0  0  0  0  0  0  0  0  0  0  0
   23.4880   10.6920   20.5300 C   0  0  0  0  0  0  0  0  0  0  0  0
   23.2110   10.7890   19.1730 C   0  0  0  0  0  0  0  0  0  0  0  0
   24.2350   10.8650   18.2430 C   0  0  0  0  0  0  0  0  0  0  0  0
   25.5500   10.8410   18.6560 C   0  0  0  0  0  0  0  0  0  0  0  0
   25.8710   10.7460   20.0070 C   0  0  0  0  0  0  0  0  0  0  0  0
   24.8260   10.6610   20.9430 C   0  0  0  0  0  0  0  0  0  0  0  0
    0.0000    0.0000    0.0000 H   0  0  0  0  0  0  0  0  0  0  0  0
    0.0000    0.0000    0.0000 H   0  0  0  0  0  0  0  0  0  0  0  0
    0.0000    0.0000    0.0000 H   0  0  0  0  0  0  0  0  0  0  0  0
    0.0000    0.0000    0.0000 H   0  0  0  0  0  0  0  0  0  0  0  0
    0.0000    0.0000    0.0000 H   0  0  0  0  0  0  0  0  0  0  0  0
    0.0000    0.0000    0.0000 H   0  0  0  0  0  0  0  0  0  0  0  0
    0.0000    0.0000    0.0000 H   0  0  0  0  0  0  0  0  0  0  0  0
    0.0000    0.0000    0.0000 H   0  0  0  0  0  0  0  0  0  0  0  0
    0.0000    0.0000    0.0000 H   0  0  0  0  0  0  0  0  0  0  0  0
    0.0000    0.0000    0.0000 H   0  0  0  0  0  0  0  0  0  0  0  0
    0.0000    0.0000    0.0000 H   0  0  0  0  0  0  0  0  0  0  0  0
    0.0000    0.0000    0.0000 H   0  0  0  0  0  0  0  0  0  0  0  0
    0.0000    0.0000    0.0000 H   0  0  0  0  0  0  0  0  0  0  0  0
    0.0000    0.0000    0.0000 H   0  0  0  0  0  0  0  0  0  0  0  0
   12.2905    5.2149    8.9742 C   0  0  0  0  0  0  0  0  0  0  0  0
   12.3923    3.8993    9.5484 C   0  0  0  0  0  0  0  0  0  0  0  0
   11.7699    3.6381   10.6089 O   0  0  0  0  0  0  0  0  0  0  0  0
   13.1685    2.9396    8.9386 O   0  0  0  0  0  0  0  0  0  0  0  0
   13.2830    1.6190    9.5000 C   0  0  0  0  0  0  0  0  0  0  0  0
   11.7200    5.9741    9.4902 H   0  0  0  0  0  0  0  0  0  0  0  0
   12.9021    5.4744    8.1412 H   0  0  0  0  0  0  0  0  0  0  0  0
   13.6275    1.7435   10.5456 H   0  0  0  0  0  0  0  0  0  0  0  0
   12.2927    1.1101    9.4732 H   0  0  0  0  0  0  0  0  0  0  0  0
   14.0294    1.0978    8.8709 H   0  0  0  0  0  0  0  0  0  0  0  0
  1  3  2  0
  1  4  1  0
  1  5  1  0
  2  4  1  0
  2  6  1  0
  4  9  1  0
  4 15  1  0
  5  6  1  0
  5  8  1  0
  6  7  2  3
  9 10  2  0
  9 14  1  0
 10 11  1  0
 11 12  2  0
 12 13  1  0
 13 14  2  0
 15 16  2  0
 15 20  1  0
 16 17  1  0
 17 18  2  0
 18 19  1  0
 19 20  2  0
  2 21  1  0
  7 22  1  0
  8 23  1  0
  8 24  1  0
  8 25  1  0
 10 26  1  0
 11 27  1  0
 12 28  1  0
 13 29  1  0
 14 30  1  0
 16 31  1  0
 17 32  1  0
 19 33  1  0
 20 34  1  0
 35 36  1  0
 36 37  2  0
 36 38  1  0
 38 39  1  0
 35 40  1  0
 35 41  1  0
 39 42  1  0
 39 43  1  0
 39 44  1  0
 18 35  1  0
M  END
>  <attachment_point>  (349) 
32

>  <score>  (349) 
<NA>

$$$$
4djw
     RDKit          3D

 46 49  0  0  0  0  0  0  0  0999 V2000
   22.4950   11.8750   22.5810 C   0  0  0  0  0  0  0  0  0  0  0  0
   22.5380    9.4930   22.4640 N   0  0  0  0  0  0  0  0  0  0  0  0
   22.3600   13.0630   22.3480 O   0  0  0  0  0  0  0  0  0  0  0  0
   22.3390   10.6680   21.5610 C   0  0  0  0  0  0  0  0  0  0  0  0
   22.7860   11.3350   23.8120 N   0  0  0  0  0  0  0  0  0  0  0  0
   22.7800    9.9140   23.7010 C   0  0  0  0  0  0  0  0  0  0  0  0
   22.9970    9.1110   24.7490 N   0  0  0  0  0  0  0  0  0  0  0  0
   23.0220   12.1410   25.0180 C   0  0  0  0  0  0  0  0  0  0  0  0
   20.9020   10.6270   21.0050 C   0  0  0  0  0  0  0  0  0  0  0  0
   20.2720    9.4140   20.7470 C   0  0  0  0  0  0  0  0  0  0  0  0
   18.9690    9.3760   20.2600 C   0  0  0  0  0  0  0  0  0  0  0  0
   18.2800   10.5440   20.0210 C   0  0  0  0  0  0  0  0  0  0  0  0
   18.8920   11.7530   20.2590 C   0  0  0  0  0  0  0  0  0  0  0  0
   20.1950   11.7970   20.7440 C   0  0  0  0  0  0  0  0  0  0  0  0
   23.4880   10.6920   20.5300 C   0  0  0  0  0  0  0  0  0  0  0  0
   23.2110   10.7890   19.1730 C   0  0  0  0  0  0  0  0  0  0  0  0
   24.2350   10.8650   18.2430 C   0  0  0  0  0  0  0  0  0  0  0  0
   25.5500   10.8410   18.6560 C   0  0  0  0  0  0  0  0  0  0  0  0
   25.8710   10.7460   20.0070 C   0  0  0  0  0  0  0  0  0  0  0  0
   24.8260   10.6610   20.9430 C   0  0  0  0  0  0  0  0  0  0  0  0
    0.0000    0.0000    0.0000 H   0  0  0  0  0  0  0  0  0  0  0  0
    0.0000    0.0000    0.0000 H   0  0  0  0  0  0  0  0  0  0  0  0
    0.0000    0.0000    0.0000 H   0  0  0  0  0  0  0  0  0  0  0  0
    0.0000    0.0000    0.0000 H   0  0  0  0  0  0  0  0  0  0  0  0
    0.0000    0.0000    0.0000 H   0  0  0  0  0  0  0  0  0  0  0  0
    0.0000    0.0000    0.0000 H   0  0  0  0  0  0  0  0  0  0  0  0
    0.0000    0.0000    0.0000 H   0  0  0  0  0  0  0  0  0  0  0  0
    0.0000    0.0000    0.0000 H   0  0  0  0  0  0  0  0  0  0  0  0
    0.0000    0.0000    0.0000 H   0  0  0  0  0  0  0  0  0  0  0  0
    0.0000    0.0000    0.0000 H   0  0  0  0  0  0  0  0  0  0  0  0
    0.0000    0.0000    0.0000 H   0  0  0  0  0  0  0  0  0  0  0  0
    0.0000    0.0000    0.0000 H   0  0  0  0  0  0  0  0  0  0  0  0
    0.0000    0.0000    0.0000 H   0  0  0  0  0  0  0  0  0  0  0  0
    0.0000    0.0000    0.0000 H   0  0  0  0  0  0  0  0  0  0  0  0
   12.4181    5.2691    9.0674 O   0  0  0  0  0  0  0  0  0  0  0  0
   12.0116    4.0921    9.6989 C   0  0  0  0  0  0  0  0  0  0  0  0
   12.5160    2.8693    9.3018 C   0  0  0  0  0  0  0  0  0  0  0  0
   12.0929    1.7201    9.9482 C   0  0  0  0  0  0  0  0  0  0  0  0
   11.1818    1.7301   10.9821 C   0  0  0  0  0  0  0  0  0  0  0  0
   10.6908    0.2212   11.7575 Cl  0  0  0  0  0  0  0  0  0  0  0  0
   10.6803    2.9503   11.3764 C   0  0  0  0  0  0  0  0  0  0  0  0
   11.0969    4.1013   10.7371 C   0  0  0  0  0  0  0  0  0  0  0  0
   13.2239    2.8518    8.4996 H   0  0  0  0  0  0  0  0  0  0  0  0
   12.4778    0.7629    9.6485 H   0  0  0  0  0  0  0  0  0  0  0  0
    9.9722    2.9803   12.1769 H   0  0  0  0  0  0  0  0  0  0  0  0
   10.7143    5.0720   11.0322 H   0  0  0  0  0  0  0  0  0  0  0  0
  1  3  2  0
  1  4  1  0
  1  5  1  0
  2  4  1  0
  2  6  1  0
  4  9  1  0
  4 15  1  0
  5  6  1  0
  5  8  1  0
  6  7  2  3
  9 10  2  0
  9 14  1  0
 10 11  1  0
 11 12  2  0
 12 13  1  0
 13 14  2  0
 15 16  2  0
 15 20  1  0
 16 17  1  0
 17 18  2  0
 18 19  1  0
 19 20  2  0
  2 21  1  0
  7 22  1  0
  8 23  1  0
  8 24  1  0
  8 25  1  0
 10 26  1  0
 11 27  1  0
 12 28  1  0
 13 29  1  0
 14 30  1  0
 16 31  1  0
 17 32  1  0
 19 33  1  0
 20 34  1  0
 35 36  1  0
 36 37  2  0
 37 38  1  0
 38 39  2  0
 39 40  1  0
 39 41  1  0
 41 42  2  0
 42 36  1  0
 37 43  1  0
 38 44  1  0
 41 45  1  0
 42 46  1  0
 18 35  1  0
M  END
>  <attachment_point>  (350) 
32

>  <score>  (350) 
<NA>

$$$$
4djw
     RDKit          3D

 47 50  0  0  0  0  0  0  0  0999 V2000
   22.4950   11.8750   22.5810 C   0  0  0  0  0  0  0  0  0  0  0  0
   22.5380    9.4930   22.4640 N   0  0  0  0  0  0  0  0  0  0  0  0
   22.3600   13.0630   22.3480 O   0  0  0  0  0  0  0  0  0  0  0  0
   22.3390   10.6680   21.5610 C   0  0  0  0  0  0  0  0  0  0  0  0
   22.7860   11.3350   23.8120 N   0  0  0  0  0  0  0  0  0  0  0  0
   22.7800    9.9140   23.7010 C   0  0  0  0  0  0  0  0  0  0  0  0
   22.9970    9.1110   24.7490 N   0  0  0  0  0  0  0  0  0  0  0  0
   23.0220   12.1410   25.0180 C   0  0  0  0  0  0  0  0  0  0  0  0
   20.9020   10.6270   21.0050 C   0  0  0  0  0  0  0  0  0  0  0  0
   20.2720    9.4140   20.7470 C   0  0  0  0  0  0  0  0  0  0  0  0
   18.9690    9.3760   20.2600 C   0  0  0  0  0  0  0  0  0  0  0  0
   18.2800   10.5440   20.0210 C   0  0  0  0  0  0  0  0  0  0  0  0
   18.8920   11.7530   20.2590 C   0  0  0  0  0  0  0  0  0  0  0  0
   20.1950   11.7970   20.7440 C   0  0  0  0  0  0  0  0  0  0  0  0
   23.4880   10.6920   20.5300 C   0  0  0  0  0  0  0  0  0  0  0  0
   23.2110   10.7890   19.1730 C   0  0  0  0  0  0  0  0  0  0  0  0
   24.2350   10.8650   18.2430 C   0  0  0  0  0  0  0  0  0  0  0  0
   25.5500   10.8410   18.6560 C   0  0  0  0  0  0  0  0  0  0  0  0
   25.8710   10.7460   20.0070 C   0  0  0  0  0  0  0  0  0  0  0  0
   24.8260   10.6610   20.9430 C   0  0  0  0  0  0  0  0  0  0  0  0
    0.0000    0.0000    0.0000 H   0  0  0  0  0  0  0  0  0  0  0  0
    0.0000    0.0000    0.0000 H   0  0  0  0  0  0  0  0  0  0  0  0
    0.0000    0.0000    0.0000 H   0  0  0  0  0  0  0  0  0  0  0  0
    0.0000    0.0000    0.0000 H   0  0  0  0  0  0  0  0  0  0  0  0
    0.0000    0.0000    0.0000 H   0  0  0  0  0  0  0  0  0  0  0  0
    0.0000    0.0000    0.0000 H   0  0  0  0  0  0  0  0  0  0  0  0
    0.0000    0.0000    0.0000 H   0  0  0  0  0  0  0  0  0  0  0  0
    0.0000    0.0000    0.0000 H   0  0  0  0  0  0  0  0  0  0  0  0
    0.0000    0.0000    0.0000 H   0  0  0  0  0  0  0  0  0  0  0  0
    0.0000    0.0000    0.0000 H   0  0  0  0  0  0  0  0  0  0  0  0
    0.0000    0.0000    0.0000 H   0  0  0  0  0  0  0  0  0  0  0  0
    0.0000    0.0000    0.0000 H   0  0  0  0  0  0  0  0  0  0  0  0
    0.0000    0.0000    0.0000 H   0  0  0  0  0  0  0  0  0  0  0  0
    0.0000    0.0000    0.0000 H   0  0  0  0  0  0  0  0  0  0  0  0
   12.4479    5.2817    9.0891 C   0  0  0  0  0  0  0  0  0  0  0  0
   12.6997    4.5880    7.9200 C   0  0  0  0  0  0  0  0  0  0  0  0
   11.6283    4.1479    7.1618 C   0  0  0  0  0  0  0  0  0  0  0  0
   10.3404    4.4078    7.5841 C   0  0  0  0  0  0  0  0  0  0  0  0
   10.0861    5.0976    8.7469 C   0  0  0  0  0  0  0  0  0  0  0  0
    8.7675    5.3684    9.1872 N   0  0  0  0  0  0  0  0  0  0  0  0
   11.1471    5.5407    9.5097 C   0  0  0  0  0  0  0  0  0  0  0  0
   13.7227    4.3761    7.5752 H   0  0  0  0  0  0  0  0  0  0  0  0
   11.7631    3.6007    6.2386 H   0  0  0  0  0  0  0  0  0  0  0  0
    9.5204    4.0564    6.9793 H   0  0  0  0  0  0  0  0  0  0  0  0
    8.1127    5.9928    8.6798 H   0  0  0  0  0  0  0  0  0  0  0  0
    8.4651    4.8993   10.0754 H   0  0  0  0  0  0  0  0  0  0  0  0
   11.0258    6.0917   10.4396 H   0  0  0  0  0  0  0  0  0  0  0  0
  1  3  2  0
  1  4  1  0
  1  5  1  0
  2  4  1  0
  2  6  1  0
  4  9  1  0
  4 15  1  0
  5  6  1  0
  5  8  1  0
  6  7  2  3
  9 10  2  0
  9 14  1  0
 10 11  1  0
 11 12  2  0
 12 13  1  0
 13 14  2  0
 15 16  2  0
 15 20  1  0
 16 17  1  0
 17 18  2  0
 18 19  1  0
 19 20  2  0
  2 21  1  0
  7 22  1  0
  8 23  1  0
  8 24  1  0
  8 25  1  0
 10 26  1  0
 11 27  1  0
 12 28  1  0
 13 29  1  0
 14 30  1  0
 16 31  1  0
 17 32  1  0
 19 33  1  0
 20 34  1  0
 35 36  2  0
 36 37  1  0
 37 38  2  0
 38 39  1  0
 39 40  1  0
 39 41  2  0
 41 35  1  0
 36 42  1  0
 37 43  1  0
 38 44  1  0
 40 45  1  0
 40 46  1  0
 41 47  1  0
 18 35  1  0
M  END
>  <attachment_point>  (351) 
32

>  <score>  (351) 
<NA>

$$$$
4djw
     RDKit          3D

 45 47  0  0  0  0  0  0  0  0999 V2000
   22.4950   11.8750   22.5810 C   0  0  0  0  0  0  0  0  0  0  0  0
   22.5380    9.4930   22.4640 N   0  0  0  0  0  0  0  0  0  0  0  0
   22.3600   13.0630   22.3480 O   0  0  0  0  0  0  0  0  0  0  0  0
   22.3390   10.6680   21.5610 C   0  0  0  0  0  0  0  0  0  0  0  0
   22.7860   11.3350   23.8120 N   0  0  0  0  0  0  0  0  0  0  0  0
   22.7800    9.9140   23.7010 C   0  0  0  0  0  0  0  0  0  0  0  0
   22.9970    9.1110   24.7490 N   0  0  0  0  0  0  0  0  0  0  0  0
   23.0220   12.1410   25.0180 C   0  0  0  0  0  0  0  0  0  0  0  0
   20.9020   10.6270   21.0050 C   0  0  0  0  0  0  0  0  0  0  0  0
   20.2720    9.4140   20.7470 C   0  0  0  0  0  0  0  0  0  0  0  0
   18.9690    9.3760   20.2600 C   0  0  0  0  0  0  0  0  0  0  0  0
   18.2800   10.5440   20.0210 C   0  0  0  0  0  0  0  0  0  0  0  0
   18.8920   11.7530   20.2590 C   0  0  0  0  0  0  0  0  0  0  0  0
   20.1950   11.7970   20.7440 C   0  0  0  0  0  0  0  0  0  0  0  0
   23.4880   10.6920   20.5300 C   0  0  0  0  0  0  0  0  0  0  0  0
   23.2110   10.7890   19.1730 C   0  0  0  0  0  0  0  0  0  0  0  0
   24.2350   10.8650   18.2430 C   0  0  0  0  0  0  0  0  0  0  0  0
   25.5500   10.8410   18.6560 C   0  0  0  0  0  0  0  0  0  0  0  0
   25.8710   10.7460   20.0070 C   0  0  0  0  0  0  0  0  0  0  0  0
   24.8260   10.6610   20.9430 C   0  0  0  0  0  0  0  0  0  0  0  0
    0.0000    0.0000    0.0000 H   0  0  0  0  0  0  0  0  0  0  0  0
    0.0000    0.0000    0.0000 H   0  0  0  0  0  0  0  0  0  0  0  0
    0.0000    0.0000    0.0000 H   0  0  0  0  0  0  0  0  0  0  0  0
    0.0000    0.0000    0.0000 H   0  0  0  0  0  0  0  0  0  0  0  0
    0.0000    0.0000    0.0000 H   0  0  0  0  0  0  0  0  0  0  0  0
    0.0000    0.0000    0.0000 H   0  0  0  0  0  0  0  0  0  0  0  0
    0.0000    0.0000    0.0000 H   0  0  0  0  0  0  0  0  0  0  0  0
    0.0000    0.0000    0.0000 H   0  0  0  0  0  0  0  0  0  0  0  0
    0.0000    0.0000    0.0000 H   0  0  0  0  0  0  0  0  0  0  0  0
    0.0000    0.0000    0.0000 H   0  0  0  0  0  0  0  0  0  0  0  0
    0.0000    0.0000    0.0000 H   0  0  0  0  0  0  0  0  0  0  0  0
    0.0000    0.0000    0.0000 H   0  0  0  0  0  0  0  0  0  0  0  0
    0.0000    0.0000    0.0000 H   0  0  0  0  0  0  0  0  0  0  0  0
    0.0000    0.0000    0.0000 H   0  0  0  0  0  0  0  0  0  0  0  0
   12.4124    5.2667    9.0633 N   0  0  0  0  0  0  0  0  0  0  0  0
   11.3354    5.3689   10.0389 C   0  0  0  0  0  0  0  0  0  0  0  0
   11.2709    6.8431   10.4417 C   0  0  0  0  0  0  0  0  0  0  0  0
   10.2038    7.0419   11.4312 N   0  0  0  0  0  0  0  0  0  0  0  0
   12.6812    4.2851    8.8649 H   0  0  0  0  0  0  0  0  0  0  0  0
   11.5187    4.7469   10.9374 H   0  0  0  0  0  0  0  0  0  0  0  0
   10.3837    5.0209    9.5968 H   0  0  0  0  0  0  0  0  0  0  0  0
   12.2161    7.0490   10.9968 H   0  0  0  0  0  0  0  0  0  0  0  0
   11.1251    7.4732    9.5666 H   0  0  0  0  0  0  0  0  0  0  0  0
   10.3085    8.0324   11.7563 H   0  0  0  0  0  0  0  0  0  0  0  0
   10.2935    6.3596   12.1909 H   0  0  0  0  0  0  0  0  0  0  0  0
  1  3  2  0
  1  4  1  0
  1  5  1  0
  2  4  1  0
  2  6  1  0
  4  9  1  0
  4 15  1  0
  5  6  1  0
  5  8  1  0
  6  7  2  3
  9 10  2  0
  9 14  1  0
 10 11  1  0
 11 12  2  0
 12 13  1  0
 13 14  2  0
 15 16  2  0
 15 20  1  0
 16 17  1  0
 17 18  2  0
 18 19  1  0
 19 20  2  0
  2 21  1  0
  7 22  1  0
  8 23  1  0
  8 24  1  0
  8 25  1  0
 10 26  1  0
 11 27  1  0
 12 28  1  0
 13 29  1  0
 14 30  1  0
 16 31  1  0
 17 32  1  0
 19 33  1  0
 20 34  1  0
 35 36  1  0
 36 37  1  0
 37 38  1  0
 35 39  1  0
 36 40  1  0
 36 41  1  0
 37 42  1  0
 37 43  1  0
 38 44  1  0
 38 45  1  0
 18 35  1  0
M  END
>  <attachment_point>  (352) 
32

>  <score>  (352) 
<NA>

$$$$
4djw
     RDKit          3D

 53 56  0  0  0  0  0  0  0  0999 V2000
   22.4950   11.8750   22.5810 C   0  0  0  0  0  0  0  0  0  0  0  0
   22.5380    9.4930   22.4640 N   0  0  0  0  0  0  0  0  0  0  0  0
   22.3600   13.0630   22.3480 O   0  0  0  0  0  0  0  0  0  0  0  0
   22.3390   10.6680   21.5610 C   0  0  0  0  0  0  0  0  0  0  0  0
   22.7860   11.3350   23.8120 N   0  0  0  0  0  0  0  0  0  0  0  0
   22.7800    9.9140   23.7010 C   0  0  0  0  0  0  0  0  0  0  0  0
   22.9970    9.1110   24.7490 N   0  0  0  0  0  0  0  0  0  0  0  0
   23.0220   12.1410   25.0180 C   0  0  0  0  0  0  0  0  0  0  0  0
   20.9020   10.6270   21.0050 C   0  0  0  0  0  0  0  0  0  0  0  0
   20.2720    9.4140   20.7470 C   0  0  0  0  0  0  0  0  0  0  0  0
   18.9690    9.3760   20.2600 C   0  0  0  0  0  0  0  0  0  0  0  0
   18.2800   10.5440   20.0210 C   0  0  0  0  0  0  0  0  0  0  0  0
   18.8920   11.7530   20.2590 C   0  0  0  0  0  0  0  0  0  0  0  0
   20.1950   11.7970   20.7440 C   0  0  0  0  0  0  0  0  0  0  0  0
   23.4880   10.6920   20.5300 C   0  0  0  0  0  0  0  0  0  0  0  0
   23.2110   10.7890   19.1730 C   0  0  0  0  0  0  0  0  0  0  0  0
   24.2350   10.8650   18.2430 C   0  0  0  0  0  0  0  0  0  0  0  0
   25.5500   10.8410   18.6560 C   0  0  0  0  0  0  0  0  0  0  0  0
   25.8710   10.7460   20.0070 C   0  0  0  0  0  0  0  0  0  0  0  0
   24.8260   10.6610   20.9430 C   0  0  0  0  0  0  0  0  0  0  0  0
    0.0000    0.0000    0.0000 H   0  0  0  0  0  0  0  0  0  0  0  0
    0.0000    0.0000    0.0000 H   0  0  0  0  0  0  0  0  0  0  0  0
    0.0000    0.0000    0.0000 H   0  0  0  0  0  0  0  0  0  0  0  0
    0.0000    0.0000    0.0000 H   0  0  0  0  0  0  0  0  0  0  0  0
    0.0000    0.0000    0.0000 H   0  0  0  0  0  0  0  0  0  0  0  0
    0.0000    0.0000    0.0000 H   0  0  0  0  0  0  0  0  0  0  0  0
    0.0000    0.0000    0.0000 H   0  0  0  0  0  0  0  0  0  0  0  0
    0.0000    0.0000    0.0000 H   0  0  0  0  0  0  0  0  0  0  0  0
    0.0000    0.0000    0.0000 H   0  0  0  0  0  0  0  0  0  0  0  0
    0.0000    0.0000    0.0000 H   0  0  0  0  0  0  0  0  0  0  0  0
    0.0000    0.0000    0.0000 H   0  0  0  0  0  0  0  0  0  0  0  0
    0.0000    0.0000    0.0000 H   0  0  0  0  0  0  0  0  0  0  0  0
    0.0000    0.0000    0.0000 H   0  0  0  0  0  0  0  0  0  0  0  0
    0.0000    0.0000    0.0000 H   0  0  0  0  0  0  0  0  0  0  0  0
   12.4764    5.2938    9.1100 N   0  0  0  0  0  0  0  0  0  0  0  0
   12.4988    5.9973    7.8312 C   0  0  0  0  0  0  0  0  0  0  0  0
   13.8111    5.9211    7.1392 C   0  0  0  0  0  0  0  0  0  0  0  0
   14.5019    4.6108    7.2087 C   0  0  0  0  0  0  0  0  0  0  0  0
   16.0289    4.7642    7.2072 C   0  0  0  0  0  0  0  0  0  0  0  0
   14.1756    3.7888    8.4173 C   0  0  0  0  0  0  0  0  0  0  0  0
   12.7202    3.8861    8.7583 C   0  0  0  0  0  0  0  0  0  0  0  0
   12.2484    7.0729    7.9982 H   0  0  0  0  0  0  0  0  0  0  0  0
   11.6544    5.5729    7.2415 H   0  0  0  0  0  0  0  0  0  0  0  0
   14.4496    6.7832    7.4809 H   0  0  0  0  0  0  0  0  0  0  0  0
   13.6255    6.1460    6.0474 H   0  0  0  0  0  0  0  0  0  0  0  0
   14.2254    3.9835    6.3117 H   0  0  0  0  0  0  0  0  0  0  0  0
   16.4167    3.7253    7.3639 H   0  0  0  0  0  0  0  0  0  0  0  0
   16.2939    5.3528    8.1078 H   0  0  0  0  0  0  0  0  0  0  0  0
   16.4001    5.2450    6.3071 H   0  0  0  0  0  0  0  0  0  0  0  0
   14.5342    2.7642    8.2570 H   0  0  0  0  0  0  0  0  0  0  0  0
   14.7436    4.2185    9.2865 H   0  0  0  0  0  0  0  0  0  0  0  0
   12.4872    3.2129    9.5801 H   0  0  0  0  0  0  0  0  0  0  0  0
   12.1063    3.6443    7.8446 H   0  0  0  0  0  0  0  0  0  0  0  0
  1  3  2  0
  1  4  1  0
  1  5  1  0
  2  4  1  0
  2  6  1  0
  4  9  1  0
  4 15  1  0
  5  6  1  0
  5  8  1  0
  6  7  2  3
  9 10  2  0
  9 14  1  0
 10 11  1  0
 11 12  2  0
 12 13  1  0
 13 14  2  0
 15 16  2  0
 15 20  1  0
 16 17  1  0
 17 18  2  0
 18 19  1  0
 19 20  2  0
  2 21  1  0
  7 22  1  0
  8 23  1  0
  8 24  1  0
  8 25  1  0
 10 26  1  0
 11 27  1  0
 12 28  1  0
 13 29  1  0
 14 30  1  0
 16 31  1  0
 17 32  1  0
 19 33  1  0
 20 34  1  0
 35 36  1  0
 36 37  1  0
 37 38  1  0
 38 39  1  0
 38 40  1  0
 40 41  1  0
 41 35  1  0
 36 42  1  0
 36 43  1  0
 37 44  1  0
 37 45  1  0
 38 46  1  0
 39 47  1  0
 39 48  1  0
 39 49  1  0
 40 50  1  0
 40 51  1  0
 41 52  1  0
 41 53  1  0
 18 35  1  0
M  END
>  <attachment_point>  (353) 
32

>  <score>  (353) 
<NA>

$$$$
4djw
     RDKit          3D

 47 50  0  0  0  0  0  0  0  0999 V2000
   22.4950   11.8750   22.5810 C   0  0  0  0  0  0  0  0  0  0  0  0
   22.5380    9.4930   22.4640 N   0  0  0  0  0  0  0  0  0  0  0  0
   22.3600   13.0630   22.3480 O   0  0  0  0  0  0  0  0  0  0  0  0
   22.3390   10.6680   21.5610 C   0  0  0  0  0  0  0  0  0  0  0  0
   22.7860   11.3350   23.8120 N   0  0  0  0  0  0  0  0  0  0  0  0
   22.7800    9.9140   23.7010 C   0  0  0  0  0  0  0  0  0  0  0  0
   22.9970    9.1110   24.7490 N   0  0  0  0  0  0  0  0  0  0  0  0
   23.0220   12.1410   25.0180 C   0  0  0  0  0  0  0  0  0  0  0  0
   20.9020   10.6270   21.0050 C   0  0  0  0  0  0  0  0  0  0  0  0
   20.2720    9.4140   20.7470 C   0  0  0  0  0  0  0  0  0  0  0  0
   18.9690    9.3760   20.2600 C   0  0  0  0  0  0  0  0  0  0  0  0
   18.2800   10.5440   20.0210 C   0  0  0  0  0  0  0  0  0  0  0  0
   18.8920   11.7530   20.2590 C   0  0  0  0  0  0  0  0  0  0  0  0
   20.1950   11.7970   20.7440 C   0  0  0  0  0  0  0  0  0  0  0  0
   23.4880   10.6920   20.5300 C   0  0  0  0  0  0  0  0  0  0  0  0
   23.2110   10.7890   19.1730 C   0  0  0  0  0  0  0  0  0  0  0  0
   24.2350   10.8650   18.2430 C   0  0  0  0  0  0  0  0  0  0  0  0
   25.5500   10.8410   18.6560 C   0  0  0  0  0  0  0  0  0  0  0  0
   25.8710   10.7460   20.0070 C   0  0  0  0  0  0  0  0  0  0  0  0
   24.8260   10.6610   20.9430 C   0  0  0  0  0  0  0  0  0  0  0  0
    0.0000    0.0000    0.0000 H   0  0  0  0  0  0  0  0  0  0  0  0
    0.0000    0.0000    0.0000 H   0  0  0  0  0  0  0  0  0  0  0  0
    0.0000    0.0000    0.0000 H   0  0  0  0  0  0  0  0  0  0  0  0
    0.0000    0.0000    0.0000 H   0  0  0  0  0  0  0  0  0  0  0  0
    0.0000    0.0000    0.0000 H   0  0  0  0  0  0  0  0  0  0  0  0
    0.0000    0.0000    0.0000 H   0  0  0  0  0  0  0  0  0  0  0  0
    0.0000    0.0000    0.0000 H   0  0  0  0  0  0  0  0  0  0  0  0
    0.0000    0.0000    0.0000 H   0  0  0  0  0  0  0  0  0  0  0  0
    0.0000    0.0000    0.0000 H   0  0  0  0  0  0  0  0  0  0  0  0
    0.0000    0.0000    0.0000 H   0  0  0  0  0  0  0  0  0  0  0  0
    0.0000    0.0000    0.0000 H   0  0  0  0  0  0  0  0  0  0  0  0
    0.0000    0.0000    0.0000 H   0  0  0  0  0  0  0  0  0  0  0  0
    0.0000    0.0000    0.0000 H   0  0  0  0  0  0  0  0  0  0  0  0
    0.0000    0.0000    0.0000 H   0  0  0  0  0  0  0  0  0  0  0  0
   12.4457    5.2808    9.0875 C   0  0  0  0  0  0  0  0  0  0  0  0
   12.7913    4.8477    7.8250 C   0  0  0  0  0  0  0  0  0  0  0  0
   11.7449    4.3923    7.0313 C   0  0  0  0  0  0  0  0  0  0  0  0
   10.4380    4.3724    7.4745 C   0  0  0  0  0  0  0  0  0  0  0  0
    9.3870    3.8632    6.5422 C   0  0  0  0  0  0  0  0  0  0  0  0
    9.4438    4.6926    5.4165 F   0  0  0  0  0  0  0  0  0  0  0  0
    9.7554    2.5916    6.1307 F   0  0  0  0  0  0  0  0  0  0  0  0
    8.1486    3.8970    7.1245 F   0  0  0  0  0  0  0  0  0  0  0  0
   10.1536    4.8154    8.7399 C   0  0  0  0  0  0  0  0  0  0  0  0
   11.1735    5.2634    9.5243 N   0  0  0  0  0  0  0  0  0  0  0  0
   13.8109    4.8568    7.4625 H   0  0  0  0  0  0  0  0  0  0  0  0
   11.9596    4.0481    6.0503 H   0  0  0  0  0  0  0  0  0  0  0  0
    9.1272    4.7972    9.0809 H   0  0  0  0  0  0  0  0  0  0  0  0
  1  3  2  0
  1  4  1  0
  1  5  1  0
  2  4  1  0
  2  6  1  0
  4  9  1  0
  4 15  1  0
  5  6  1  0
  5  8  1  0
  6  7  2  3
  9 10  2  0
  9 14  1  0
 10 11  1  0
 11 12  2  0
 12 13  1  0
 13 14  2  0
 15 16  2  0
 15 20  1  0
 16 17  1  0
 17 18  2  0
 18 19  1  0
 19 20  2  0
  2 21  1  0
  7 22  1  0
  8 23  1  0
  8 24  1  0
  8 25  1  0
 10 26  1  0
 11 27  1  0
 12 28  1  0
 13 29  1  0
 14 30  1  0
 16 31  1  0
 17 32  1  0
 19 33  1  0
 20 34  1  0
 35 36  2  0
 36 37  1  0
 37 38  2  0
 38 39  1  0
 39 40  1  0
 39 41  1  0
 39 42  1  0
 38 43  1  0
 43 44  2  0
 44 35  1  0
 36 45  1  0
 37 46  1  0
 43 47  1  0
 18 35  1  0
M  END
>  <attachment_point>  (354) 
32

>  <score>  (354) 
<NA>

$$$$
4djw
     RDKit          3D

 51 54  0  0  0  0  0  0  0  0999 V2000
   22.4950   11.8750   22.5810 C   0  0  0  0  0  0  0  0  0  0  0  0
   22.5380    9.4930   22.4640 N   0  0  0  0  0  0  0  0  0  0  0  0
   22.3600   13.0630   22.3480 O   0  0  0  0  0  0  0  0  0  0  0  0
   22.3390   10.6680   21.5610 C   0  0  0  0  0  0  0  0  0  0  0  0
   22.7860   11.3350   23.8120 N   0  0  0  0  0  0  0  0  0  0  0  0
   22.7800    9.9140   23.7010 C   0  0  0  0  0  0  0  0  0  0  0  0
   22.9970    9.1110   24.7490 N   0  0  0  0  0  0  0  0  0  0  0  0
   23.0220   12.1410   25.0180 C   0  0  0  0  0  0  0  0  0  0  0  0
   20.9020   10.6270   21.0050 C   0  0  0  0  0  0  0  0  0  0  0  0
   20.2720    9.4140   20.7470 C   0  0  0  0  0  0  0  0  0  0  0  0
   18.9690    9.3760   20.2600 C   0  0  0  0  0  0  0  0  0  0  0  0
   18.2800   10.5440   20.0210 C   0  0  0  0  0  0  0  0  0  0  0  0
   18.8920   11.7530   20.2590 C   0  0  0  0  0  0  0  0  0  0  0  0
   20.1950   11.7970   20.7440 C   0  0  0  0  0  0  0  0  0  0  0  0
   23.4880   10.6920   20.5300 C   0  0  0  0  0  0  0  0  0  0  0  0
   23.2110   10.7890   19.1730 C   0  0  0  0  0  0  0  0  0  0  0  0
   24.2350   10.8650   18.2430 C   0  0  0  0  0  0  0  0  0  0  0  0
   25.5500   10.8410   18.6560 C   0  0  0  0  0  0  0  0  0  0  0  0
   25.8710   10.7460   20.0070 C   0  0  0  0  0  0  0  0  0  0  0  0
   24.8260   10.6610   20.9430 C   0  0  0  0  0  0  0  0  0  0  0  0
    0.0000    0.0000    0.0000 H   0  0  0  0  0  0  0  0  0  0  0  0
    0.0000    0.0000    0.0000 H   0  0  0  0  0  0  0  0  0  0  0  0
    0.0000    0.0000    0.0000 H   0  0  0  0  0  0  0  0  0  0  0  0
    0.0000    0.0000    0.0000 H   0  0  0  0  0  0  0  0  0  0  0  0
    0.0000    0.0000    0.0000 H   0  0  0  0  0  0  0  0  0  0  0  0
    0.0000    0.0000    0.0000 H   0  0  0  0  0  0  0  0  0  0  0  0
    0.0000    0.0000    0.0000 H   0  0  0  0  0  0  0  0  0  0  0  0
    0.0000    0.0000    0.0000 H   0  0  0  0  0  0  0  0  0  0  0  0
    0.0000    0.0000    0.0000 H   0  0  0  0  0  0  0  0  0  0  0  0
    0.0000    0.0000    0.0000 H   0  0  0  0  0  0  0  0  0  0  0  0
    0.0000    0.0000    0.0000 H   0  0  0  0  0  0  0  0  0  0  0  0
    0.0000    0.0000    0.0000 H   0  0  0  0  0  0  0  0  0  0  0  0
    0.0000    0.0000    0.0000 H   0  0  0  0  0  0  0  0  0  0  0  0
    0.0000    0.0000    0.0000 H   0  0  0  0  0  0  0  0  0  0  0  0
   12.4356    5.2765    9.0802 C   0  0  0  0  0  0  0  0  0  0  0  0
   11.6501    4.4183    9.4970 O   0  0  0  0  0  0  0  0  0  0  0  0
   12.2751    5.8080    7.8322 O   0  0  0  0  0  0  0  0  0  0  0  0
   11.2671    5.4604    6.9470 C   0  0  0  0  0  0  0  0  0  0  0  0
    9.8833    5.6939    7.4060 C   0  0  0  0  0  0  0  0  0  0  0  0
    9.1378    4.6838    7.9737 C   0  0  0  0  0  0  0  0  0  0  0  0
    7.8371    4.9739    8.4028 C   0  0  0  0  0  0  0  0  0  0  0  0
    7.2790    6.2175    8.2803 C   0  0  0  0  0  0  0  0  0  0  0  0
    8.0381    7.2172    7.7094 C   0  0  0  0  0  0  0  0  0  0  0  0
    9.3224    6.9734    7.2743 C   0  0  0  0  0  0  0  0  0  0  0  0
   11.3785    4.3930    6.5906 H   0  0  0  0  0  0  0  0  0  0  0  0
   11.4273    6.1141    6.0345 H   0  0  0  0  0  0  0  0  0  0  0  0
    9.4960    3.6638    8.0999 H   0  0  0  0  0  0  0  0  0  0  0  0
    7.2375    4.1821    8.8542 H   0  0  0  0  0  0  0  0  0  0  0  0
    6.2724    6.4583    8.6079 H   0  0  0  0  0  0  0  0  0  0  0  0
    7.5823    8.2157    7.6138 H   0  0  0  0  0  0  0  0  0  0  0  0
    9.9058    7.7873    6.8232 H   0  0  0  0  0  0  0  0  0  0  0  0
  1  3  2  0
  1  4  1  0
  1  5  1  0
  2  4  1  0
  2  6  1  0
  4  9  1  0
  4 15  1  0
  5  6  1  0
  5  8  1  0
  6  7  2  3
  9 10  2  0
  9 14  1  0
 10 11  1  0
 11 12  2  0
 12 13  1  0
 13 14  2  0
 15 16  2  0
 15 20  1  0
 16 17  1  0
 17 18  2  0
 18 19  1  0
 19 20  2  0
  2 21  1  0
  7 22  1  0
  8 23  1  0
  8 24  1  0
  8 25  1  0
 10 26  1  0
 11 27  1  0
 12 28  1  0
 13 29  1  0
 14 30  1  0
 16 31  1  0
 17 32  1  0
 19 33  1  0
 20 34  1  0
 35 36  2  0
 35 37  1  0
 37 38  1  0
 38 39  1  0
 39 40  2  0
 40 41  1  0
 41 42  2  0
 42 43  1  0
 43 44  2  0
 44 39  1  0
 38 45  1  0
 38 46  1  0
 40 47  1  0
 41 48  1  0
 42 49  1  0
 43 50  1  0
 44 51  1  0
 18 35  1  0
M  END
>  <attachment_point>  (355) 
32

>  <score>  (355) 
<NA>

$$$$
4djw
     RDKit          3D

 46 48  0  0  0  0  0  0  0  0999 V2000
   22.4950   11.8750   22.5810 C   0  0  0  0  0  0  0  0  0  0  0  0
   22.5380    9.4930   22.4640 N   0  0  0  0  0  0  0  0  0  0  0  0
   22.3600   13.0630   22.3480 O   0  0  0  0  0  0  0  0  0  0  0  0
   22.3390   10.6680   21.5610 C   0  0  0  0  0  0  0  0  0  0  0  0
   22.7860   11.3350   23.8120 N   0  0  0  0  0  0  0  0  0  0  0  0
   22.7800    9.9140   23.7010 C   0  0  0  0  0  0  0  0  0  0  0  0
   22.9970    9.1110   24.7490 N   0  0  0  0  0  0  0  0  0  0  0  0
   23.0220   12.1410   25.0180 C   0  0  0  0  0  0  0  0  0  0  0  0
   20.9020   10.6270   21.0050 C   0  0  0  0  0  0  0  0  0  0  0  0
   20.2720    9.4140   20.7470 C   0  0  0  0  0  0  0  0  0  0  0  0
   18.9690    9.3760   20.2600 C   0  0  0  0  0  0  0  0  0  0  0  0
   18.2800   10.5440   20.0210 C   0  0  0  0  0  0  0  0  0  0  0  0
   18.8920   11.7530   20.2590 C   0  0  0  0  0  0  0  0  0  0  0  0
   20.1950   11.7970   20.7440 C   0  0  0  0  0  0  0  0  0  0  0  0
   23.4880   10.6920   20.5300 C   0  0  0  0  0  0  0  0  0  0  0  0
   23.2110   10.7890   19.1730 C   0  0  0  0  0  0  0  0  0  0  0  0
   24.2350   10.8650   18.2430 C   0  0  0  0  0  0  0  0  0  0  0  0
   25.5500   10.8410   18.6560 C   0  0  0  0  0  0  0  0  0  0  0  0
   25.8710   10.7460   20.0070 C   0  0  0  0  0  0  0  0  0  0  0  0
   24.8260   10.6610   20.9430 C   0  0  0  0  0  0  0  0  0  0  0  0
    0.0000    0.0000    0.0000 H   0  0  0  0  0  0  0  0  0  0  0  0
    0.0000    0.0000    0.0000 H   0  0  0  0  0  0  0  0  0  0  0  0
    0.0000    0.0000    0.0000 H   0  0  0  0  0  0  0  0  0  0  0  0
    0.0000    0.0000    0.0000 H   0  0  0  0  0  0  0  0  0  0  0  0
    0.0000    0.0000    0.0000 H   0  0  0  0  0  0  0  0  0  0  0  0
    0.0000    0.0000    0.0000 H   0  0  0  0  0  0  0  0  0  0  0  0
    0.0000    0.0000    0.0000 H   0  0  0  0  0  0  0  0  0  0  0  0
    0.0000    0.0000    0.0000 H   0  0  0  0  0  0  0  0  0  0  0  0
    0.0000    0.0000    0.0000 H   0  0  0  0  0  0  0  0  0  0  0  0
    0.0000    0.0000    0.0000 H   0  0  0  0  0  0  0  0  0  0  0  0
    0.0000    0.0000    0.0000 H   0  0  0  0  0  0  0  0  0  0  0  0
    0.0000    0.0000    0.0000 H   0  0  0  0  0  0  0  0  0  0  0  0
    0.0000    0.0000    0.0000 H   0  0  0  0  0  0  0  0  0  0  0  0
    0.0000    0.0000    0.0000 H   0  0  0  0  0  0  0  0  0  0  0  0
   12.4467    5.2812    9.0883 S   0  0  0  0  0  6  0  0  0  0  0  0
   12.9736    4.1551    8.2181 O   0  0  0  0  0  0  0  0  0  0  0  0
   11.3685    4.7401    9.9451 O   0  0  0  0  0  0  0  0  0  0  0  0
   11.9205    6.5172    8.0168 N   0  0  0  0  0  0  0  0  0  0  0  0
   10.8931    7.3555    8.5844 C   0  0  0  0  0  0  0  0  0  0  0  0
   11.5894    6.0236    6.7078 C   0  0  0  0  0  0  0  0  0  0  0  0
   11.3212    7.7591    9.5470 H   0  0  0  0  0  0  0  0  0  0  0  0
   10.7712    8.2245    7.8975 H   0  0  0  0  0  0  0  0  0  0  0  0
    9.9284    6.8677    8.7155 H   0  0  0  0  0  0  0  0  0  0  0  0
   11.3299    4.9398    6.8236 H   0  0  0  0  0  0  0  0  0  0  0  0
   10.6665    6.4967    6.2843 H   0  0  0  0  0  0  0  0  0  0  0  0
   12.4398    6.0553    5.9970 H   0  0  0  0  0  0  0  0  0  0  0  0
  1  3  2  0
  1  4  1  0
  1  5  1  0
  2  4  1  0
  2  6  1  0
  4  9  1  0
  4 15  1  0
  5  6  1  0
  5  8  1  0
  6  7  2  3
  9 10  2  0
  9 14  1  0
 10 11  1  0
 11 12  2  0
 12 13  1  0
 13 14  2  0
 15 16  2  0
 15 20  1  0
 16 17  1  0
 17 18  2  0
 18 19  1  0
 19 20  2  0
  2 21  1  0
  7 22  1  0
  8 23  1  0
  8 24  1  0
  8 25  1  0
 10 26  1  0
 11 27  1  0
 12 28  1  0
 13 29  1  0
 14 30  1  0
 16 31  1  0
 17 32  1  0
 19 33  1  0
 20 34  1  0
 35 36  2  0
 35 37  2  0
 35 38  1  0
 38 39  1  0
 38 40  1  0
 39 41  1  0
 39 42  1  0
 39 43  1  0
 40 44  1  0
 40 45  1  0
 40 46  1  0
 18 35  1  0
M  END
>  <attachment_point>  (356) 
32

>  <score>  (356) 
<NA>

$$$$
4djw
     RDKit          3D

 43 45  0  0  0  0  0  0  0  0999 V2000
   22.4950   11.8750   22.5810 C   0  0  0  0  0  0  0  0  0  0  0  0
   22.5380    9.4930   22.4640 N   0  0  0  0  0  0  0  0  0  0  0  0
   22.3600   13.0630   22.3480 O   0  0  0  0  0  0  0  0  0  0  0  0
   22.3390   10.6680   21.5610 C   0  0  0  0  0  0  0  0  0  0  0  0
   22.7860   11.3350   23.8120 N   0  0  0  0  0  0  0  0  0  0  0  0
   22.7800    9.9140   23.7010 C   0  0  0  0  0  0  0  0  0  0  0  0
   22.9970    9.1110   24.7490 N   0  0  0  0  0  0  0  0  0  0  0  0
   23.0220   12.1410   25.0180 C   0  0  0  0  0  0  0  0  0  0  0  0
   20.9020   10.6270   21.0050 C   0  0  0  0  0  0  0  0  0  0  0  0
   20.2720    9.4140   20.7470 C   0  0  0  0  0  0  0  0  0  0  0  0
   18.9690    9.3760   20.2600 C   0  0  0  0  0  0  0  0  0  0  0  0
   18.2800   10.5440   20.0210 C   0  0  0  0  0  0  0  0  0  0  0  0
   18.8920   11.7530   20.2590 C   0  0  0  0  0  0  0  0  0  0  0  0
   20.1950   11.7970   20.7440 C   0  0  0  0  0  0  0  0  0  0  0  0
   23.4880   10.6920   20.5300 C   0  0  0  0  0  0  0  0  0  0  0  0
   23.2110   10.7890   19.1730 C   0  0  0  0  0  0  0  0  0  0  0  0
   24.2350   10.8650   18.2430 C   0  0  0  0  0  0  0  0  0  0  0  0
   25.5500   10.8410   18.6560 C   0  0  0  0  0  0  0  0  0  0  0  0
   25.8710   10.7460   20.0070 C   0  0  0  0  0  0  0  0  0  0  0  0
   24.8260   10.6610   20.9430 C   0  0  0  0  0  0  0  0  0  0  0  0
    0.0000    0.0000    0.0000 H   0  0  0  0  0  0  0  0  0  0  0  0
    0.0000    0.0000    0.0000 H   0  0  0  0  0  0  0  0  0  0  0  0
    0.0000    0.0000    0.0000 H   0  0  0  0  0  0  0  0  0  0  0  0
    0.0000    0.0000    0.0000 H   0  0  0  0  0  0  0  0  0  0  0  0
    0.0000    0.0000    0.0000 H   0  0  0  0  0  0  0  0  0  0  0  0
    0.0000    0.0000    0.0000 H   0  0  0  0  0  0  0  0  0  0  0  0
    0.0000    0.0000    0.0000 H   0  0  0  0  0  0  0  0  0  0  0  0
    0.0000    0.0000    0.0000 H   0  0  0  0  0  0  0  0  0  0  0  0
    0.0000    0.0000    0.0000 H   0  0  0  0  0  0  0  0  0  0  0  0
    0.0000    0.0000    0.0000 H   0  0  0  0  0  0  0  0  0  0  0  0
    0.0000    0.0000    0.0000 H   0  0  0  0  0  0  0  0  0  0  0  0
    0.0000    0.0000    0.0000 H   0  0  0  0  0  0  0  0  0  0  0  0
    0.0000    0.0000    0.0000 H   0  0  0  0  0  0  0  0  0  0  0  0
    0.0000    0.0000    0.0000 H   0  0  0  0  0  0  0  0  0  0  0  0
   12.4404    5.2785    9.0837 C   0  0  0  0  0  0  0  0  0  0  0  0
   11.2101    6.0275    9.3712 C   0  0  0  0  0  0  0  0  0  0  0  0
   10.1707    5.7188    8.7350 O   0  0  0  0  0  0  0  0  0  0  0  0
   11.1070    7.0823   10.3214 N   0  0  0  0  0  0  0  0  0  0  0  0
    9.9558    7.7527   10.5620 O   0  0  0  0  0  0  0  0  0  0  0  0
   12.2608    4.2175    9.3859 H   0  0  0  0  0  0  0  0  0  0  0  0
   12.7892    5.3743    8.0399 H   0  0  0  0  0  0  0  0  0  0  0  0
   11.9901    7.3198   10.8388 H   0  0  0  0  0  0  0  0  0  0  0  0
    9.8671    8.5694    9.9873 H   0  0  0  0  0  0  0  0  0  0  0  0
  1  3  2  0
  1  4  1  0
  1  5  1  0
  2  4  1  0
  2  6  1  0
  4  9  1  0
  4 15  1  0
  5  6  1  0
  5  8  1  0
  6  7  2  3
  9 10  2  0
  9 14  1  0
 10 11  1  0
 11 12  2  0
 12 13  1  0
 13 14  2  0
 15 16  2  0
 15 20  1  0
 16 17  1  0
 17 18  2  0
 18 19  1  0
 19 20  2  0
  2 21  1  0
  7 22  1  0
  8 23  1  0
  8 24  1  0
  8 25  1  0
 10 26  1  0
 11 27  1  0
 12 28  1  0
 13 29  1  0
 14 30  1  0
 16 31  1  0
 17 32  1  0
 19 33  1  0
 20 34  1  0
 35 36  1  0
 36 37  2  0
 36 38  1  0
 38 39  1  0
 35 40  1  0
 35 41  1  0
 38 42  1  0
 39 43  1  0
 18 35  1  0
M  END
>  <attachment_point>  (357) 
32

>  <score>  (357) 
<NA>

$$$$
4djw
     RDKit          3D

 51 54  0  0  0  0  0  0  0  0999 V2000
   22.4950   11.8750   22.5810 C   0  0  0  0  0  0  0  0  0  0  0  0
   22.5380    9.4930   22.4640 N   0  0  0  0  0  0  0  0  0  0  0  0
   22.3600   13.0630   22.3480 O   0  0  0  0  0  0  0  0  0  0  0  0
   22.3390   10.6680   21.5610 C   0  0  0  0  0  0  0  0  0  0  0  0
   22.7860   11.3350   23.8120 N   0  0  0  0  0  0  0  0  0  0  0  0
   22.7800    9.9140   23.7010 C   0  0  0  0  0  0  0  0  0  0  0  0
   22.9970    9.1110   24.7490 N   0  0  0  0  0  0  0  0  0  0  0  0
   23.0220   12.1410   25.0180 C   0  0  0  0  0  0  0  0  0  0  0  0
   20.9020   10.6270   21.0050 C   0  0  0  0  0  0  0  0  0  0  0  0
   20.2720    9.4140   20.7470 C   0  0  0  0  0  0  0  0  0  0  0  0
   18.9690    9.3760   20.2600 C   0  0  0  0  0  0  0  0  0  0  0  0
   18.2800   10.5440   20.0210 C   0  0  0  0  0  0  0  0  0  0  0  0
   18.8920   11.7530   20.2590 C   0  0  0  0  0  0  0  0  0  0  0  0
   20.1950   11.7970   20.7440 C   0  0  0  0  0  0  0  0  0  0  0  0
   23.4880   10.6920   20.5300 C   0  0  0  0  0  0  0  0  0  0  0  0
   23.2110   10.7890   19.1730 C   0  0  0  0  0  0  0  0  0  0  0  0
   24.2350   10.8650   18.2430 C   0  0  0  0  0  0  0  0  0  0  0  0
   25.5500   10.8410   18.6560 C   0  0  0  0  0  0  0  0  0  0  0  0
   25.8710   10.7460   20.0070 C   0  0  0  0  0  0  0  0  0  0  0  0
   24.8260   10.6610   20.9430 C   0  0  0  0  0  0  0  0  0  0  0  0
    0.0000    0.0000    0.0000 H   0  0  0  0  0  0  0  0  0  0  0  0
    0.0000    0.0000    0.0000 H   0  0  0  0  0  0  0  0  0  0  0  0
    0.0000    0.0000    0.0000 H   0  0  0  0  0  0  0  0  0  0  0  0
    0.0000    0.0000    0.0000 H   0  0  0  0  0  0  0  0  0  0  0  0
    0.0000    0.0000    0.0000 H   0  0  0  0  0  0  0  0  0  0  0  0
    0.0000    0.0000    0.0000 H   0  0  0  0  0  0  0  0  0  0  0  0
    0.0000    0.0000    0.0000 H   0  0  0  0  0  0  0  0  0  0  0  0
    0.0000    0.0000    0.0000 H   0  0  0  0  0  0  0  0  0  0  0  0
    0.0000    0.0000    0.0000 H   0  0  0  0  0  0  0  0  0  0  0  0
    0.0000    0.0000    0.0000 H   0  0  0  0  0  0  0  0  0  0  0  0
    0.0000    0.0000    0.0000 H   0  0  0  0  0  0  0  0  0  0  0  0
    0.0000    0.0000    0.0000 H   0  0  0  0  0  0  0  0  0  0  0  0
    0.0000    0.0000    0.0000 H   0  0  0  0  0  0  0  0  0  0  0  0
    0.0000    0.0000    0.0000 H   0  0  0  0  0  0  0  0  0  0  0  0
   12.3871    5.2559    9.0448 C   0  0  0  0  0  0  0  0  0  0  0  0
   12.6452    5.3448    7.8680 O   0  0  0  0  0  0  0  0  0  0  0  0
   11.2439    4.7940    9.7346 C   0  0  0  0  0  0  0  0  0  0  0  0
   11.1882    4.7918   11.1166 C   0  0  0  0  0  0  0  0  0  0  0  0
   10.0974    4.3521   11.8418 C   0  0  0  0  0  0  0  0  0  0  0  0
    9.0031    3.8895   11.1540 C   0  0  0  0  0  0  0  0  0  0  0  0
    7.8840    3.4374   11.8370 O   0  0  0  0  0  0  0  0  0  0  0  0
    7.8722    3.4539   13.2556 C   0  0  0  0  0  0  0  0  0  0  0  0
    9.0007    3.8676    9.7758 C   0  0  0  0  0  0  0  0  0  0  0  0
   10.1062    4.3141    9.0912 C   0  0  0  0  0  0  0  0  0  0  0  0
   12.0406    5.1522   11.6545 H   0  0  0  0  0  0  0  0  0  0  0  0
   10.1303    4.3822   12.9339 H   0  0  0  0  0  0  0  0  0  0  0  0
    8.6953    2.8248   13.6449 H   0  0  0  0  0  0  0  0  0  0  0  0
    6.9396    3.0635   13.6582 H   0  0  0  0  0  0  0  0  0  0  0  0
    8.0499    4.5093   13.5626 H   0  0  0  0  0  0  0  0  0  0  0  0
    8.1684    3.5147    9.1837 H   0  0  0  0  0  0  0  0  0  0  0  0
   10.1667    4.3226    8.0046 H   0  0  0  0  0  0  0  0  0  0  0  0
  1  3  2  0
  1  4  1  0
  1  5  1  0
  2  4  1  0
  2  6  1  0
  4  9  1  0
  4 15  1  0
  5  6  1  0
  5  8  1  0
  6  7  2  3
  9 10  2  0
  9 14  1  0
 10 11  1  0
 11 12  2  0
 12 13  1  0
 13 14  2  0
 15 16  2  0
 15 20  1  0
 16 17  1  0
 17 18  2  0
 18 19  1  0
 19 20  2  0
  2 21  1  0
  7 22  1  0
  8 23  1  0
  8 24  1  0
  8 25  1  0
 10 26  1  0
 11 27  1  0
 12 28  1  0
 13 29  1  0
 14 30  1  0
 16 31  1  0
 17 32  1  0
 19 33  1  0
 20 34  1  0
 35 36  2  0
 35 37  1  0
 37 38  2  0
 38 39  1  0
 39 40  2  0
 40 41  1  0
 41 42  1  0
 40 43  1  0
 43 44  2  0
 44 37  1  0
 38 45  1  0
 39 46  1  0
 42 47  1  0
 42 48  1  0
 42 49  1  0
 43 50  1  0
 44 51  1  0
 18 35  1  0
M  END
>  <attachment_point>  (358) 
32

>  <score>  (358) 
<NA>

$$$$
4djw
     RDKit          3D

 41 44  0  0  0  0  0  0  0  0999 V2000
   22.4950   11.8750   22.5810 C   0  0  0  0  0  0  0  0  0  0  0  0
   22.5380    9.4930   22.4640 N   0  0  0  0  0  0  0  0  0  0  0  0
   22.3600   13.0630   22.3480 O   0  0  0  0  0  0  0  0  0  0  0  0
   22.3390   10.6680   21.5610 C   0  0  0  0  0  0  0  0  0  0  0  0
   22.7860   11.3350   23.8120 N   0  0  0  0  0  0  0  0  0  0  0  0
   22.7800    9.9140   23.7010 C   0  0  0  0  0  0  0  0  0  0  0  0
   22.9970    9.1110   24.7490 N   0  0  0  0  0  0  0  0  0  0  0  0
   23.0220   12.1410   25.0180 C   0  0  0  0  0  0  0  0  0  0  0  0
   20.9020   10.6270   21.0050 C   0  0  0  0  0  0  0  0  0  0  0  0
   20.2720    9.4140   20.7470 C   0  0  0  0  0  0  0  0  0  0  0  0
   18.9690    9.3760   20.2600 C   0  0  0  0  0  0  0  0  0  0  0  0
   18.2800   10.5440   20.0210 C   0  0  0  0  0  0  0  0  0  0  0  0
   18.8920   11.7530   20.2590 C   0  0  0  0  0  0  0  0  0  0  0  0
   20.1950   11.7970   20.7440 C   0  0  0  0  0  0  0  0  0  0  0  0
   23.4880   10.6920   20.5300 C   0  0  0  0  0  0  0  0  0  0  0  0
   23.2110   10.7890   19.1730 C   0  0  0  0  0  0  0  0  0  0  0  0
   24.2350   10.8650   18.2430 C   0  0  0  0  0  0  0  0  0  0  0  0
   25.5500   10.8410   18.6560 C   0  0  0  0  0  0  0  0  0  0  0  0
   25.8710   10.7460   20.0070 C   0  0  0  0  0  0  0  0  0  0  0  0
   24.8260   10.6610   20.9430 C   0  0  0  0  0  0  0  0  0  0  0  0
    0.0000    0.0000    0.0000 H   0  0  0  0  0  0  0  0  0  0  0  0
    0.0000    0.0000    0.0000 H   0  0  0  0  0  0  0  0  0  0  0  0
    0.0000    0.0000    0.0000 H   0  0  0  0  0  0  0  0  0  0  0  0
    0.0000    0.0000    0.0000 H   0  0  0  0  0  0  0  0  0  0  0  0
    0.0000    0.0000    0.0000 H   0  0  0  0  0  0  0  0  0  0  0  0
    0.0000    0.0000    0.0000 H   0  0  0  0  0  0  0  0  0  0  0  0
    0.0000    0.0000    0.0000 H   0  0  0  0  0  0  0  0  0  0  0  0
    0.0000    0.0000    0.0000 H   0  0  0  0  0  0  0  0  0  0  0  0
    0.0000    0.0000    0.0000 H   0  0  0  0  0  0  0  0  0  0  0  0
    0.0000    0.0000    0.0000 H   0  0  0  0  0  0  0  0  0  0  0  0
    0.0000    0.0000    0.0000 H   0  0  0  0  0  0  0  0  0  0  0  0
    0.0000    0.0000    0.0000 H   0  0  0  0  0  0  0  0  0  0  0  0
    0.0000    0.0000    0.0000 H   0  0  0  0  0  0  0  0  0  0  0  0
    0.0000    0.0000    0.0000 H   0  0  0  0  0  0  0  0  0  0  0  0
   12.4420    5.2792    9.0849 N   0  0  0  0  0  0  0  0  0  0  0  0
   12.0405    4.0244    8.9248 C   0  0  0  0  0  0  0  0  0  0  0  0
   10.9702    4.1222    8.0755 N   0  0  0  0  0  0  0  0  0  0  0  0
   10.7577    5.4000    7.7523 C   0  0  0  0  0  0  0  0  0  0  0  0
   11.6962    6.1144    8.3988 N   0  0  0  0  0  0  0  0  0  0  0  0
   12.4261    3.1083    9.3390 H   0  0  0  0  0  0  0  0  0  0  0  0
   10.0127    5.8043    7.1198 H   0  0  0  0  0  0  0  0  0  0  0  0
  1  3  2  0
  1  4  1  0
  1  5  1  0
  2  4  1  0
  2  6  1  0
  4  9  1  0
  4 15  1  0
  5  6  1  0
  5  8  1  0
  6  7  2  3
  9 10  2  0
  9 14  1  0
 10 11  1  0
 11 12  2  0
 12 13  1  0
 13 14  2  0
 15 16  2  0
 15 20  1  0
 16 17  1  0
 17 18  2  0
 18 19  1  0
 19 20  2  0
  2 21  1  0
  7 22  1  0
  8 23  1  0
  8 24  1  0
  8 25  1  0
 10 26  1  0
 11 27  1  0
 12 28  1  0
 13 29  1  0
 14 30  1  0
 16 31  1  0
 17 32  1  0
 19 33  1  0
 20 34  1  0
 35 36  1  0
 36 37  2  0
 37 38  1  0
 38 39  2  0
 39 35  1  0
 36 40  1  0
 38 41  1  0
 18 35  1  0
M  END
>  <attachment_point>  (359) 
32

>  <score>  (359) 
<NA>

$$$$
4djw
     RDKit          3D

 42 44  0  0  0  0  0  0  0  0999 V2000
   22.4950   11.8750   22.5810 C   0  0  0  0  0  0  0  0  0  0  0  0
   22.5380    9.4930   22.4640 N   0  0  0  0  0  0  0  0  0  0  0  0
   22.3600   13.0630   22.3480 O   0  0  0  0  0  0  0  0  0  0  0  0
   22.3390   10.6680   21.5610 C   0  0  0  0  0  0  0  0  0  0  0  0
   22.7860   11.3350   23.8120 N   0  0  0  0  0  0  0  0  0  0  0  0
   22.7800    9.9140   23.7010 C   0  0  0  0  0  0  0  0  0  0  0  0
   22.9970    9.1110   24.7490 N   0  0  0  0  0  0  0  0  0  0  0  0
   23.0220   12.1410   25.0180 C   0  0  0  0  0  0  0  0  0  0  0  0
   20.9020   10.6270   21.0050 C   0  0  0  0  0  0  0  0  0  0  0  0
   20.2720    9.4140   20.7470 C   0  0  0  0  0  0  0  0  0  0  0  0
   18.9690    9.3760   20.2600 C   0  0  0  0  0  0  0  0  0  0  0  0
   18.2800   10.5440   20.0210 C   0  0  0  0  0  0  0  0  0  0  0  0
   18.8920   11.7530   20.2590 C   0  0  0  0  0  0  0  0  0  0  0  0
   20.1950   11.7970   20.7440 C   0  0  0  0  0  0  0  0  0  0  0  0
   23.4880   10.6920   20.5300 C   0  0  0  0  0  0  0  0  0  0  0  0
   23.2110   10.7890   19.1730 C   0  0  0  0  0  0  0  0  0  0  0  0
   24.2350   10.8650   18.2430 C   0  0  0  0  0  0  0  0  0  0  0  0
   25.5500   10.8410   18.6560 C   0  0  0  0  0  0  0  0  0  0  0  0
   25.8710   10.7460   20.0070 C   0  0  0  0  0  0  0  0  0  0  0  0
   24.8260   10.6610   20.9430 C   0  0  0  0  0  0  0  0  0  0  0  0
    0.0000    0.0000    0.0000 H   0  0  0  0  0  0  0  0  0  0  0  0
    0.0000    0.0000    0.0000 H   0  0  0  0  0  0  0  0  0  0  0  0
    0.0000    0.0000    0.0000 H   0  0  0  0  0  0  0  0  0  0  0  0
    0.0000    0.0000    0.0000 H   0  0  0  0  0  0  0  0  0  0  0  0
    0.0000    0.0000    0.0000 H   0  0  0  0  0  0  0  0  0  0  0  0
    0.0000    0.0000    0.0000 H   0  0  0  0  0  0  0  0  0  0  0  0
    0.0000    0.0000    0.0000 H   0  0  0  0  0  0  0  0  0  0  0  0
    0.0000    0.0000    0.0000 H   0  0  0  0  0  0  0  0  0  0  0  0
    0.0000    0.0000    0.0000 H   0  0  0  0  0  0  0  0  0  0  0  0
    0.0000    0.0000    0.0000 H   0  0  0  0  0  0  0  0  0  0  0  0
    0.0000    0.0000    0.0000 H   0  0  0  0  0  0  0  0  0  0  0  0
    0.0000    0.0000    0.0000 H   0  0  0  0  0  0  0  0  0  0  0  0
    0.0000    0.0000    0.0000 H   0  0  0  0  0  0  0  0  0  0  0  0
    0.0000    0.0000    0.0000 H   0  0  0  0  0  0  0  0  0  0  0  0
   12.4583    5.2861    9.0967 O   0  0  0  0  0  0  0  0  0  0  0  0
   12.2360    3.9585    9.4951 C   0  0  0  0  0  0  0  0  0  0  0  0
   11.0724    3.4626    8.6426 C   0  0  0  0  0  0  0  0  0  0  0  0
   10.0020    4.2990    8.9315 F   0  0  0  0  0  0  0  0  0  0  0  0
   13.1282    3.3673    9.2645 H   0  0  0  0  0  0  0  0  0  0  0  0
   11.9967    3.9037   10.5782 H   0  0  0  0  0  0  0  0  0  0  0  0
   10.8381    2.4314    8.9279 H   0  0  0  0  0  0  0  0  0  0  0  0
   11.3812    3.5449    7.5896 H   0  0  0  0  0  0  0  0  0  0  0  0
  1  3  2  0
  1  4  1  0
  1  5  1  0
  2  4  1  0
  2  6  1  0
  4  9  1  0
  4 15  1  0
  5  6  1  0
  5  8  1  0
  6  7  2  3
  9 10  2  0
  9 14  1  0
 10 11  1  0
 11 12  2  0
 12 13  1  0
 13 14  2  0
 15 16  2  0
 15 20  1  0
 16 17  1  0
 17 18  2  0
 18 19  1  0
 19 20  2  0
  2 21  1  0
  7 22  1  0
  8 23  1  0
  8 24  1  0
  8 25  1  0
 10 26  1  0
 11 27  1  0
 12 28  1  0
 13 29  1  0
 14 30  1  0
 16 31  1  0
 17 32  1  0
 19 33  1  0
 20 34  1  0
 35 36  1  0
 36 37  1  0
 37 38  1  0
 36 39  1  0
 36 40  1  0
 37 41  1  0
 37 42  1  0
 18 35  1  0
M  END
>  <attachment_point>  (360) 
32

>  <score>  (360) 
<NA>

$$$$
4djw
     RDKit          3D

 51 54  0  0  0  0  0  0  0  0999 V2000
   22.4950   11.8750   22.5810 C   0  0  0  0  0  0  0  0  0  0  0  0
   22.5380    9.4930   22.4640 N   0  0  0  0  0  0  0  0  0  0  0  0
   22.3600   13.0630   22.3480 O   0  0  0  0  0  0  0  0  0  0  0  0
   22.3390   10.6680   21.5610 C   0  0  0  0  0  0  0  0  0  0  0  0
   22.7860   11.3350   23.8120 N   0  0  0  0  0  0  0  0  0  0  0  0
   22.7800    9.9140   23.7010 C   0  0  0  0  0  0  0  0  0  0  0  0
   22.9970    9.1110   24.7490 N   0  0  0  0  0  0  0  0  0  0  0  0
   23.0220   12.1410   25.0180 C   0  0  0  0  0  0  0  0  0  0  0  0
   20.9020   10.6270   21.0050 C   0  0  0  0  0  0  0  0  0  0  0  0
   20.2720    9.4140   20.7470 C   0  0  0  0  0  0  0  0  0  0  0  0
   18.9690    9.3760   20.2600 C   0  0  0  0  0  0  0  0  0  0  0  0
   18.2800   10.5440   20.0210 C   0  0  0  0  0  0  0  0  0  0  0  0
   18.8920   11.7530   20.2590 C   0  0  0  0  0  0  0  0  0  0  0  0
   20.1950   11.7970   20.7440 C   0  0  0  0  0  0  0  0  0  0  0  0
   23.4880   10.6920   20.5300 C   0  0  0  0  0  0  0  0  0  0  0  0
   23.2110   10.7890   19.1730 C   0  0  0  0  0  0  0  0  0  0  0  0
   24.2350   10.8650   18.2430 C   0  0  0  0  0  0  0  0  0  0  0  0
   25.5500   10.8410   18.6560 C   0  0  0  0  0  0  0  0  0  0  0  0
   25.8710   10.7460   20.0070 C   0  0  0  0  0  0  0  0  0  0  0  0
   24.8260   10.6610   20.9430 C   0  0  0  0  0  0  0  0  0  0  0  0
    0.0000    0.0000    0.0000 H   0  0  0  0  0  0  0  0  0  0  0  0
    0.0000    0.0000    0.0000 H   0  0  0  0  0  0  0  0  0  0  0  0
    0.0000    0.0000    0.0000 H   0  0  0  0  0  0  0  0  0  0  0  0
    0.0000    0.0000    0.0000 H   0  0  0  0  0  0  0  0  0  0  0  0
    0.0000    0.0000    0.0000 H   0  0  0  0  0  0  0  0  0  0  0  0
    0.0000    0.0000    0.0000 H   0  0  0  0  0  0  0  0  0  0  0  0
    0.0000    0.0000    0.0000 H   0  0  0  0  0  0  0  0  0  0  0  0
    0.0000    0.0000    0.0000 H   0  0  0  0  0  0  0  0  0  0  0  0
    0.0000    0.0000    0.0000 H   0  0  0  0  0  0  0  0  0  0  0  0
    0.0000    0.0000    0.0000 H   0  0  0  0  0  0  0  0  0  0  0  0
    0.0000    0.0000    0.0000 H   0  0  0  0  0  0  0  0  0  0  0  0
    0.0000    0.0000    0.0000 H   0  0  0  0  0  0  0  0  0  0  0  0
    0.0000    0.0000    0.0000 H   0  0  0  0  0  0  0  0  0  0  0  0
    0.0000    0.0000    0.0000 H   0  0  0  0  0  0  0  0  0  0  0  0
   12.4542    5.2844    9.0938 N   0  0  0  0  0  0  0  0  0  0  0  0
   11.2507    5.9898    9.2928 C   0  0  0  0  0  0  0  0  0  0  0  0
   10.3636    5.5592   10.2578 C   0  0  0  0  0  0  0  0  0  0  0  0
    9.1780    6.2259   10.4781 C   0  0  0  0  0  0  0  0  0  0  0  0
    8.9230    7.3331    9.6956 C   0  0  0  0  0  0  0  0  0  0  0  0
    9.8142    7.7572    8.7333 C   0  0  0  0  0  0  0  0  0  0  0  0
   11.0108    7.0979    8.4994 C   0  0  0  0  0  0  0  0  0  0  0  0
   11.9523    7.5445    7.4842 C   0  0  0  0  0  0  0  0  0  0  0  0
   11.7189    8.6699    6.6714 N   0  0  0  0  0  0  0  0  0  0  0  0
   13.0097    6.8898    7.3395 O   0  0  0  0  0  0  0  0  0  0  0  0
   12.5524    4.4967    8.4305 H   0  0  0  0  0  0  0  0  0  0  0  0
   10.5605    4.6893   10.8749 H   0  0  0  0  0  0  0  0  0  0  0  0
    8.4602    5.9071   11.2334 H   0  0  0  0  0  0  0  0  0  0  0  0
    7.9911    7.8648    9.8621 H   0  0  0  0  0  0  0  0  0  0  0  0
    9.5952    8.6306    8.1282 H   0  0  0  0  0  0  0  0  0  0  0  0
   10.9970    8.6513    5.9207 H   0  0  0  0  0  0  0  0  0  0  0  0
   12.2487    9.5618    6.7798 H   0  0  0  0  0  0  0  0  0  0  0  0
  1  3  2  0
  1  4  1  0
  1  5  1  0
  2  4  1  0
  2  6  1  0
  4  9  1  0
  4 15  1  0
  5  6  1  0
  5  8  1  0
  6  7  2  3
  9 10  2  0
  9 14  1  0
 10 11  1  0
 11 12  2  0
 12 13  1  0
 13 14  2  0
 15 16  2  0
 15 20  1  0
 16 17  1  0
 17 18  2  0
 18 19  1  0
 19 20  2  0
  2 21  1  0
  7 22  1  0
  8 23  1  0
  8 24  1  0
  8 25  1  0
 10 26  1  0
 11 27  1  0
 12 28  1  0
 13 29  1  0
 14 30  1  0
 16 31  1  0
 17 32  1  0
 19 33  1  0
 20 34  1  0
 35 36  1  0
 36 37  2  0
 37 38  1  0
 38 39  2  0
 39 40  1  0
 40 41  2  0
 41 42  1  0
 42 43  1  0
 42 44  2  0
 41 36  1  0
 35 45  1  0
 37 46  1  0
 38 47  1  0
 39 48  1  0
 40 49  1  0
 43 50  1  0
 43 51  1  0
 18 35  1  0
M  END
>  <attachment_point>  (361) 
32

>  <score>  (361) 
<NA>

$$$$
4djw
     RDKit          3D

 46 48  0  0  0  0  0  0  0  0999 V2000
   22.4950   11.8750   22.5810 C   0  0  0  0  0  0  0  0  0  0  0  0
   22.5380    9.4930   22.4640 N   0  0  0  0  0  0  0  0  0  0  0  0
   22.3600   13.0630   22.3480 O   0  0  0  0  0  0  0  0  0  0  0  0
   22.3390   10.6680   21.5610 C   0  0  0  0  0  0  0  0  0  0  0  0
   22.7860   11.3350   23.8120 N   0  0  0  0  0  0  0  0  0  0  0  0
   22.7800    9.9140   23.7010 C   0  0  0  0  0  0  0  0  0  0  0  0
   22.9970    9.1110   24.7490 N   0  0  0  0  0  0  0  0  0  0  0  0
   23.0220   12.1410   25.0180 C   0  0  0  0  0  0  0  0  0  0  0  0
   20.9020   10.6270   21.0050 C   0  0  0  0  0  0  0  0  0  0  0  0
   20.2720    9.4140   20.7470 C   0  0  0  0  0  0  0  0  0  0  0  0
   18.9690    9.3760   20.2600 C   0  0  0  0  0  0  0  0  0  0  0  0
   18.2800   10.5440   20.0210 C   0  0  0  0  0  0  0  0  0  0  0  0
   18.8920   11.7530   20.2590 C   0  0  0  0  0  0  0  0  0  0  0  0
   20.1950   11.7970   20.7440 C   0  0  0  0  0  0  0  0  0  0  0  0
   23.4880   10.6920   20.5300 C   0  0  0  0  0  0  0  0  0  0  0  0
   23.2110   10.7890   19.1730 C   0  0  0  0  0  0  0  0  0  0  0  0
   24.2350   10.8650   18.2430 C   0  0  0  0  0  0  0  0  0  0  0  0
   25.5500   10.8410   18.6560 C   0  0  0  0  0  0  0  0  0  0  0  0
   25.8710   10.7460   20.0070 C   0  0  0  0  0  0  0  0  0  0  0  0
   24.8260   10.6610   20.9430 C   0  0  0  0  0  0  0  0  0  0  0  0
    0.0000    0.0000    0.0000 H   0  0  0  0  0  0  0  0  0  0  0  0
    0.0000    0.0000    0.0000 H   0  0  0  0  0  0  0  0  0  0  0  0
    0.0000    0.0000    0.0000 H   0  0  0  0  0  0  0  0  0  0  0  0
    0.0000    0.0000    0.0000 H   0  0  0  0  0  0  0  0  0  0  0  0
    0.0000    0.0000    0.0000 H   0  0  0  0  0  0  0  0  0  0  0  0
    0.0000    0.0000    0.0000 H   0  0  0  0  0  0  0  0  0  0  0  0
    0.0000    0.0000    0.0000 H   0  0  0  0  0  0  0  0  0  0  0  0
    0.0000    0.0000    0.0000 H   0  0  0  0  0  0  0  0  0  0  0  0
    0.0000    0.0000    0.0000 H   0  0  0  0  0  0  0  0  0  0  0  0
    0.0000    0.0000    0.0000 H   0  0  0  0  0  0  0  0  0  0  0  0
    0.0000    0.0000    0.0000 H   0  0  0  0  0  0  0  0  0  0  0  0
    0.0000    0.0000    0.0000 H   0  0  0  0  0  0  0  0  0  0  0  0
    0.0000    0.0000    0.0000 H   0  0  0  0  0  0  0  0  0  0  0  0
    0.0000    0.0000    0.0000 H   0  0  0  0  0  0  0  0  0  0  0  0
   12.4281    5.2733    9.0747 C   0  0  0  0  0  0  0  0  0  0  0  0
   11.6479    4.2948    9.9324 C   0  0  0  0  0  0  0  0  0  0  0  0
   10.4882    3.7397    9.2236 C   0  0  0  0  0  0  0  0  0  0  0  0
   10.2335    4.0840    8.0384 O   0  0  0  0  0  0  0  0  0  0  0  0
    9.6173    2.8066    9.8315 N   0  0  0  0  0  0  0  0  0  0  0  0
    8.5463    2.2899    9.1857 O   0  0  0  0  0  0  0  0  0  0  0  0
   12.9253    4.8042    8.2211 H   0  0  0  0  0  0  0  0  0  0  0  0
   11.8103    6.1551    8.8049 H   0  0  0  0  0  0  0  0  0  0  0  0
   12.3354    3.5010   10.2875 H   0  0  0  0  0  0  0  0  0  0  0  0
   11.3401    4.8731   10.8432 H   0  0  0  0  0  0  0  0  0  0  0  0
    9.8549    2.5349   10.8281 H   0  0  0  0  0  0  0  0  0  0  0  0
    7.9699    3.0887    8.9640 H   0  0  0  0  0  0  0  0  0  0  0  0
  1  3  2  0
  1  4  1  0
  1  5  1  0
  2  4  1  0
  2  6  1  0
  4  9  1  0
  4 15  1  0
  5  6  1  0
  5  8  1  0
  6  7  2  3
  9 10  2  0
  9 14  1  0
 10 11  1  0
 11 12  2  0
 12 13  1  0
 13 14  2  0
 15 16  2  0
 15 20  1  0
 16 17  1  0
 17 18  2  0
 18 19  1  0
 19 20  2  0
  2 21  1  0
  7 22  1  0
  8 23  1  0
  8 24  1  0
  8 25  1  0
 10 26  1  0
 11 27  1  0
 12 28  1  0
 13 29  1  0
 14 30  1  0
 16 31  1  0
 17 32  1  0
 19 33  1  0
 20 34  1  0
 35 36  1  0
 36 37  1  0
 37 38  2  0
 37 39  1  0
 39 40  1  0
 35 41  1  0
 35 42  1  0
 36 43  1  0
 36 44  1  0
 39 45  1  0
 40 46  1  0
 18 35  1  0
M  END
>  <attachment_point>  (362) 
32

>  <score>  (362) 
<NA>

$$$$
4djw
     RDKit          3D

 41 43  0  0  0  0  0  0  0  0999 V2000
   22.4950   11.8750   22.5810 C   0  0  0  0  0  0  0  0  0  0  0  0
   22.5380    9.4930   22.4640 N   0  0  0  0  0  0  0  0  0  0  0  0
   22.3600   13.0630   22.3480 O   0  0  0  0  0  0  0  0  0  0  0  0
   22.3390   10.6680   21.5610 C   0  0  0  0  0  0  0  0  0  0  0  0
   22.7860   11.3350   23.8120 N   0  0  0  0  0  0  0  0  0  0  0  0
   22.7800    9.9140   23.7010 C   0  0  0  0  0  0  0  0  0  0  0  0
   22.9970    9.1110   24.7490 N   0  0  0  0  0  0  0  0  0  0  0  0
   23.0220   12.1410   25.0180 C   0  0  0  0  0  0  0  0  0  0  0  0
   20.9020   10.6270   21.0050 C   0  0  0  0  0  0  0  0  0  0  0  0
   20.2720    9.4140   20.7470 C   0  0  0  0  0  0  0  0  0  0  0  0
   18.9690    9.3760   20.2600 C   0  0  0  0  0  0  0  0  0  0  0  0
   18.2800   10.5440   20.0210 C   0  0  0  0  0  0  0  0  0  0  0  0
   18.8920   11.7530   20.2590 C   0  0  0  0  0  0  0  0  0  0  0  0
   20.1950   11.7970   20.7440 C   0  0  0  0  0  0  0  0  0  0  0  0
   23.4880   10.6920   20.5300 C   0  0  0  0  0  0  0  0  0  0  0  0
   23.2110   10.7890   19.1730 C   0  0  0  0  0  0  0  0  0  0  0  0
   24.2350   10.8650   18.2430 C   0  0  0  0  0  0  0  0  0  0  0  0
   25.5500   10.8410   18.6560 C   0  0  0  0  0  0  0  0  0  0  0  0
   25.8710   10.7460   20.0070 C   0  0  0  0  0  0  0  0  0  0  0  0
   24.8260   10.6610   20.9430 C   0  0  0  0  0  0  0  0  0  0  0  0
    0.0000    0.0000    0.0000 H   0  0  0  0  0  0  0  0  0  0  0  0
    0.0000    0.0000    0.0000 H   0  0  0  0  0  0  0  0  0  0  0  0
    0.0000    0.0000    0.0000 H   0  0  0  0  0  0  0  0  0  0  0  0
    0.0000    0.0000    0.0000 H   0  0  0  0  0  0  0  0  0  0  0  0
    0.0000    0.0000    0.0000 H   0  0  0  0  0  0  0  0  0  0  0  0
    0.0000    0.0000    0.0000 H   0  0  0  0  0  0  0  0  0  0  0  0
    0.0000    0.0000    0.0000 H   0  0  0  0  0  0  0  0  0  0  0  0
    0.0000    0.0000    0.0000 H   0  0  0  0  0  0  0  0  0  0  0  0
    0.0000    0.0000    0.0000 H   0  0  0  0  0  0  0  0  0  0  0  0
    0.0000    0.0000    0.0000 H   0  0  0  0  0  0  0  0  0  0  0  0
    0.0000    0.0000    0.0000 H   0  0  0  0  0  0  0  0  0  0  0  0
    0.0000    0.0000    0.0000 H   0  0  0  0  0  0  0  0  0  0  0  0
    0.0000    0.0000    0.0000 H   0  0  0  0  0  0  0  0  0  0  0  0
    0.0000    0.0000    0.0000 H   0  0  0  0  0  0  0  0  0  0  0  0
   12.5522    5.3260    9.1653 O   0  0  0  0  0  0  0  0  0  0  0  0
   11.4331    6.1337    8.9271 C   0  0  0  0  0  0  0  0  0  0  0  0
   10.5070    5.3620    8.0816 C   0  0  0  0  0  0  0  0  0  0  0  0
    9.7327    4.7296    7.3958 C   0  0  0  0  0  0  0  0  0  0  0  0
   11.7314    7.0867    8.4234 H   0  0  0  0  0  0  0  0  0  0  0  0
   10.9456    6.3244    9.8888 H   0  0  0  0  0  0  0  0  0  0  0  0
    9.0467    4.1926    6.7934 H   0  0  0  0  0  0  0  0  0  0  0  0
  1  3  2  0
  1  4  1  0
  1  5  1  0
  2  4  1  0
  2  6  1  0
  4  9  1  0
  4 15  1  0
  5  6  1  0
  5  8  1  0
  6  7  2  3
  9 10  2  0
  9 14  1  0
 10 11  1  0
 11 12  2  0
 12 13  1  0
 13 14  2  0
 15 16  2  0
 15 20  1  0
 16 17  1  0
 17 18  2  0
 18 19  1  0
 19 20  2  0
  2 21  1  0
  7 22  1  0
  8 23  1  0
  8 24  1  0
  8 25  1  0
 10 26  1  0
 11 27  1  0
 12 28  1  0
 13 29  1  0
 14 30  1  0
 16 31  1  0
 17 32  1  0
 19 33  1  0
 20 34  1  0
 35 36  1  0
 36 37  1  0
 37 38  3  0
 36 39  1  0
 36 40  1  0
 38 41  1  0
 18 35  1  0
M  END
>  <attachment_point>  (363) 
32

>  <score>  (363) 
<NA>

$$$$
4djw
     RDKit          3D

 40 43  0  0  0  0  0  0  0  0999 V2000
   22.4950   11.8750   22.5810 C   0  0  0  0  0  0  0  0  0  0  0  0
   22.5380    9.4930   22.4640 N   0  0  0  0  0  0  0  0  0  0  0  0
   22.3600   13.0630   22.3480 O   0  0  0  0  0  0  0  0  0  0  0  0
   22.3390   10.6680   21.5610 C   0  0  0  0  0  0  0  0  0  0  0  0
   22.7860   11.3350   23.8120 N   0  0  0  0  0  0  0  0  0  0  0  0
   22.7800    9.9140   23.7010 C   0  0  0  0  0  0  0  0  0  0  0  0
   22.9970    9.1110   24.7490 N   0  0  0  0  0  0  0  0  0  0  0  0
   23.0220   12.1410   25.0180 C   0  0  0  0  0  0  0  0  0  0  0  0
   20.9020   10.6270   21.0050 C   0  0  0  0  0  0  0  0  0  0  0  0
   20.2720    9.4140   20.7470 C   0  0  0  0  0  0  0  0  0  0  0  0
   18.9690    9.3760   20.2600 C   0  0  0  0  0  0  0  0  0  0  0  0
   18.2800   10.5440   20.0210 C   0  0  0  0  0  0  0  0  0  0  0  0
   18.8920   11.7530   20.2590 C   0  0  0  0  0  0  0  0  0  0  0  0
   20.1950   11.7970   20.7440 C   0  0  0  0  0  0  0  0  0  0  0  0
   23.4880   10.6920   20.5300 C   0  0  0  0  0  0  0  0  0  0  0  0
   23.2110   10.7890   19.1730 C   0  0  0  0  0  0  0  0  0  0  0  0
   24.2350   10.8650   18.2430 C   0  0  0  0  0  0  0  0  0  0  0  0
   25.5500   10.8410   18.6560 C   0  0  0  0  0  0  0  0  0  0  0  0
   25.8710   10.7460   20.0070 C   0  0  0  0  0  0  0  0  0  0  0  0
   24.8260   10.6610   20.9430 C   0  0  0  0  0  0  0  0  0  0  0  0
    0.0000    0.0000    0.0000 H   0  0  0  0  0  0  0  0  0  0  0  0
    0.0000    0.0000    0.0000 H   0  0  0  0  0  0  0  0  0  0  0  0
    0.0000    0.0000    0.0000 H   0  0  0  0  0  0  0  0  0  0  0  0
    0.0000    0.0000    0.0000 H   0  0  0  0  0  0  0  0  0  0  0  0
    0.0000    0.0000    0.0000 H   0  0  0  0  0  0  0  0  0  0  0  0
    0.0000    0.0000    0.0000 H   0  0  0  0  0  0  0  0  0  0  0  0
    0.0000    0.0000    0.0000 H   0  0  0  0  0  0  0  0  0  0  0  0
    0.0000    0.0000    0.0000 H   0  0  0  0  0  0  0  0  0  0  0  0
    0.0000    0.0000    0.0000 H   0  0  0  0  0  0  0  0  0  0  0  0
    0.0000    0.0000    0.0000 H   0  0  0  0  0  0  0  0  0  0  0  0
    0.0000    0.0000    0.0000 H   0  0  0  0  0  0  0  0  0  0  0  0
    0.0000    0.0000    0.0000 H   0  0  0  0  0  0  0  0  0  0  0  0
    0.0000    0.0000    0.0000 H   0  0  0  0  0  0  0  0  0  0  0  0
    0.0000    0.0000    0.0000 H   0  0  0  0  0  0  0  0  0  0  0  0
   12.4356    5.2765    9.0801 C   0  0  0  0  0  0  0  0  0  0  0  0
   11.3736    6.0163    8.7674 N   0  0  0  0  0  0  0  0  0  0  0  0
   10.5905    5.2482    8.0262 N   0  0  0  0  0  0  0  0  0  0  0  0
   11.1285    4.0514    7.8653 N   0  0  0  0  0  0  0  0  0  0  0  0
   12.2732    4.0785    8.5228 N   0  0  0  0  0  0  0  0  0  0  0  0
   10.7427    3.2430    7.3331 H   0  0  0  0  0  0  0  0  0  0  0  0
  1  3  2  0
  1  4  1  0
  1  5  1  0
  2  4  1  0
  2  6  1  0
  4  9  1  0
  4 15  1  0
  5  6  1  0
  5  8  1  0
  6  7  2  3
  9 10  2  0
  9 14  1  0
 10 11  1  0
 11 12  2  0
 12 13  1  0
 13 14  2  0
 15 16  2  0
 15 20  1  0
 16 17  1  0
 17 18  2  0
 18 19  1  0
 19 20  2  0
  2 21  1  0
  7 22  1  0
  8 23  1  0
  8 24  1  0
  8 25  1  0
 10 26  1  0
 11 27  1  0
 12 28  1  0
 13 29  1  0
 14 30  1  0
 16 31  1  0
 17 32  1  0
 19 33  1  0
 20 34  1  0
 35 36  1  0
 36 37  2  0
 37 38  1  0
 38 39  1  0
 39 35  2  0
 38 40  1  0
 18 35  1  0
M  END
>  <attachment_point>  (364) 
32

>  <score>  (364) 
<NA>

$$$$
4djw
     RDKit          3D

 54 57  0  0  0  0  0  0  0  0999 V2000
   22.4950   11.8750   22.5810 C   0  0  0  0  0  0  0  0  0  0  0  0
   22.5380    9.4930   22.4640 N   0  0  0  0  0  0  0  0  0  0  0  0
   22.3600   13.0630   22.3480 O   0  0  0  0  0  0  0  0  0  0  0  0
   22.3390   10.6680   21.5610 C   0  0  0  0  0  0  0  0  0  0  0  0
   22.7860   11.3350   23.8120 N   0  0  0  0  0  0  0  0  0  0  0  0
   22.7800    9.9140   23.7010 C   0  0  0  0  0  0  0  0  0  0  0  0
   22.9970    9.1110   24.7490 N   0  0  0  0  0  0  0  0  0  0  0  0
   23.0220   12.1410   25.0180 C   0  0  0  0  0  0  0  0  0  0  0  0
   20.9020   10.6270   21.0050 C   0  0  0  0  0  0  0  0  0  0  0  0
   20.2720    9.4140   20.7470 C   0  0  0  0  0  0  0  0  0  0  0  0
   18.9690    9.3760   20.2600 C   0  0  0  0  0  0  0  0  0  0  0  0
   18.2800   10.5440   20.0210 C   0  0  0  0  0  0  0  0  0  0  0  0
   18.8920   11.7530   20.2590 C   0  0  0  0  0  0  0  0  0  0  0  0
   20.1950   11.7970   20.7440 C   0  0  0  0  0  0  0  0  0  0  0  0
   23.4880   10.6920   20.5300 C   0  0  0  0  0  0  0  0  0  0  0  0
   23.2110   10.7890   19.1730 C   0  0  0  0  0  0  0  0  0  0  0  0
   24.2350   10.8650   18.2430 C   0  0  0  0  0  0  0  0  0  0  0  0
   25.5500   10.8410   18.6560 C   0  0  0  0  0  0  0  0  0  0  0  0
   25.8710   10.7460   20.0070 C   0  0  0  0  0  0  0  0  0  0  0  0
   24.8260   10.6610   20.9430 C   0  0  0  0  0  0  0  0  0  0  0  0
    0.0000    0.0000    0.0000 H   0  0  0  0  0  0  0  0  0  0  0  0
    0.0000    0.0000    0.0000 H   0  0  0  0  0  0  0  0  0  0  0  0
    0.0000    0.0000    0.0000 H   0  0  0  0  0  0  0  0  0  0  0  0
    0.0000    0.0000    0.0000 H   0  0  0  0  0  0  0  0  0  0  0  0
    0.0000    0.0000    0.0000 H   0  0  0  0  0  0  0  0  0  0  0  0
    0.0000    0.0000    0.0000 H   0  0  0  0  0  0  0  0  0  0  0  0
    0.0000    0.0000    0.0000 H   0  0  0  0  0  0  0  0  0  0  0  0
    0.0000    0.0000    0.0000 H   0  0  0  0  0  0  0  0  0  0  0  0
    0.0000    0.0000    0.0000 H   0  0  0  0  0  0  0  0  0  0  0  0
    0.0000    0.0000    0.0000 H   0  0  0  0  0  0  0  0  0  0  0  0
    0.0000    0.0000    0.0000 H   0  0  0  0  0  0  0  0  0  0  0  0
    0.0000    0.0000    0.0000 H   0  0  0  0  0  0  0  0  0  0  0  0
    0.0000    0.0000    0.0000 H   0  0  0  0  0  0  0  0  0  0  0  0
    0.0000    0.0000    0.0000 H   0  0  0  0  0  0  0  0  0  0  0  0
   12.4626    5.2879    9.0999 N   0  0  0  0  0  0  0  0  0  0  0  0
   12.9702    5.4042    7.7268 C   0  0  0  0  0  0  0  0  0  0  0  0
   11.8073    5.0871    6.8463 C   0  0  0  0  0  0  0  0  0  0  0  0
   11.3873    3.6760    7.0255 C   0  0  0  0  0  0  0  0  0  0  0  0
   12.0902    2.8379    5.9476 C   0  0  0  0  0  0  0  0  0  0  0  0
   13.4529    2.9108    6.0395 O   0  0  0  0  0  0  0  0  0  0  0  0
   11.5570    3.1073    8.3828 C   0  0  0  0  0  0  0  0  0  0  0  0
   12.2938    3.9021    9.3743 C   0  0  0  0  0  0  0  0  0  0  0  0
   13.3650    6.4214    7.5385 H   0  0  0  0  0  0  0  0  0  0  0  0
   13.7483    4.6280    7.5988 H   0  0  0  0  0  0  0  0  0  0  0  0
   12.0995    5.3009    5.7972 H   0  0  0  0  0  0  0  0  0  0  0  0
   10.9430    5.7744    7.0790 H   0  0  0  0  0  0  0  0  0  0  0  0
   10.2992    3.6305    6.7178 H   0  0  0  0  0  0  0  0  0  0  0  0
   11.7140    3.2330    4.9644 H   0  0  0  0  0  0  0  0  0  0  0  0
   11.7715    1.7767    5.9967 H   0  0  0  0  0  0  0  0  0  0  0  0
   13.8303    3.2717    5.1981 H   0  0  0  0  0  0  0  0  0  0  0  0
   10.5455    2.8412    8.8154 H   0  0  0  0  0  0  0  0  0  0  0  0
   12.0506    2.0956    8.2633 H   0  0  0  0  0  0  0  0  0  0  0  0
   11.8166    3.8245   10.3968 H   0  0  0  0  0  0  0  0  0  0  0  0
   13.3210    3.4574    9.5337 H   0  0  0  0  0  0  0  0  0  0  0  0
  1  3  2  0
  1  4  1  0
  1  5  1  0
  2  4  1  0
  2  6  1  0
  4  9  1  0
  4 15  1  0
  5  6  1  0
  5  8  1  0
  6  7  2  3
  9 10  2  0
  9 14  1  0
 10 11  1  0
 11 12  2  0
 12 13  1  0
 13 14  2  0
 15 16  2  0
 15 20  1  0
 16 17  1  0
 17 18  2  0
 18 19  1  0
 19 20  2  0
  2 21  1  0
  7 22  1  0
  8 23  1  0
  8 24  1  0
  8 25  1  0
 10 26  1  0
 11 27  1  0
 12 28  1  0
 13 29  1  0
 14 30  1  0
 16 31  1  0
 17 32  1  0
 19 33  1  0
 20 34  1  0
 35 36  1  0
 36 37  1  0
 37 38  1  0
 38 39  1  0
 39 40  1  0
 38 41  1  0
 41 42  1  0
 42 35  1  0
 36 43  1  0
 36 44  1  0
 37 45  1  0
 37 46  1  0
 38 47  1  0
 39 48  1  0
 39 49  1  0
 40 50  1  0
 41 51  1  0
 41 52  1  0
 42 53  1  0
 42 54  1  0
 18 35  1  0
M  END
>  <attachment_point>  (365) 
32

>  <score>  (365) 
<NA>

$$$$
4djw
     RDKit          3D

 46 49  0  0  0  0  0  0  0  0999 V2000
   22.4950   11.8750   22.5810 C   0  0  0  0  0  0  0  0  0  0  0  0
   22.5380    9.4930   22.4640 N   0  0  0  0  0  0  0  0  0  0  0  0
   22.3600   13.0630   22.3480 O   0  0  0  0  0  0  0  0  0  0  0  0
   22.3390   10.6680   21.5610 C   0  0  0  0  0  0  0  0  0  0  0  0
   22.7860   11.3350   23.8120 N   0  0  0  0  0  0  0  0  0  0  0  0
   22.7800    9.9140   23.7010 C   0  0  0  0  0  0  0  0  0  0  0  0
   22.9970    9.1110   24.7490 N   0  0  0  0  0  0  0  0  0  0  0  0
   23.0220   12.1410   25.0180 C   0  0  0  0  0  0  0  0  0  0  0  0
   20.9020   10.6270   21.0050 C   0  0  0  0  0  0  0  0  0  0  0  0
   20.2720    9.4140   20.7470 C   0  0  0  0  0  0  0  0  0  0  0  0
   18.9690    9.3760   20.2600 C   0  0  0  0  0  0  0  0  0  0  0  0
   18.2800   10.5440   20.0210 C   0  0  0  0  0  0  0  0  0  0  0  0
   18.8920   11.7530   20.2590 C   0  0  0  0  0  0  0  0  0  0  0  0
   20.1950   11.7970   20.7440 C   0  0  0  0  0  0  0  0  0  0  0  0
   23.4880   10.6920   20.5300 C   0  0  0  0  0  0  0  0  0  0  0  0
   23.2110   10.7890   19.1730 C   0  0  0  0  0  0  0  0  0  0  0  0
   24.2350   10.8650   18.2430 C   0  0  0  0  0  0  0  0  0  0  0  0
   25.5500   10.8410   18.6560 C   0  0  0  0  0  0  0  0  0  0  0  0
   25.8710   10.7460   20.0070 C   0  0  0  0  0  0  0  0  0  0  0  0
   24.8260   10.6610   20.9430 C   0  0  0  0  0  0  0  0  0  0  0  0
    0.0000    0.0000    0.0000 H   0  0  0  0  0  0  0  0  0  0  0  0
    0.0000    0.0000    0.0000 H   0  0  0  0  0  0  0  0  0  0  0  0
    0.0000    0.0000    0.0000 H   0  0  0  0  0  0  0  0  0  0  0  0
    0.0000    0.0000    0.0000 H   0  0  0  0  0  0  0  0  0  0  0  0
    0.0000    0.0000    0.0000 H   0  0  0  0  0  0  0  0  0  0  0  0
    0.0000    0.0000    0.0000 H   0  0  0  0  0  0  0  0  0  0  0  0
    0.0000    0.0000    0.0000 H   0  0  0  0  0  0  0  0  0  0  0  0
    0.0000    0.0000    0.0000 H   0  0  0  0  0  0  0  0  0  0  0  0
    0.0000    0.0000    0.0000 H   0  0  0  0  0  0  0  0  0  0  0  0
    0.0000    0.0000    0.0000 H   0  0  0  0  0  0  0  0  0  0  0  0
    0.0000    0.0000    0.0000 H   0  0  0  0  0  0  0  0  0  0  0  0
    0.0000    0.0000    0.0000 H   0  0  0  0  0  0  0  0  0  0  0  0
    0.0000    0.0000    0.0000 H   0  0  0  0  0  0  0  0  0  0  0  0
    0.0000    0.0000    0.0000 H   0  0  0  0  0  0  0  0  0  0  0  0
   12.3204    5.2276    8.9960 C   0  0  0  0  0  0  0  0  0  0  0  0
   11.4522    4.8585    8.3856 C   0  0  0  0  0  0  0  0  0  0  0  0
   10.3409    4.3913    7.6344 C   0  0  0  0  0  0  0  0  0  0  0  0
   10.5013    4.1578    6.2877 C   0  0  0  0  0  0  0  0  0  0  0  0
    9.4545    3.7076    5.5326 C   0  0  0  0  0  0  0  0  0  0  0  0
    8.2435    3.4969    6.1575 C   0  0  0  0  0  0  0  0  0  0  0  0
    8.0786    3.7231    7.4758 N   0  0  0  0  0  0  0  0  0  0  0  0
    9.1090    4.1643    8.2100 C   0  0  0  0  0  0  0  0  0  0  0  0
   11.4516    4.3176    5.7701 H   0  0  0  0  0  0  0  0  0  0  0  0
    9.5908    3.5230    4.4547 H   0  0  0  0  0  0  0  0  0  0  0  0
    7.4466    3.1419    5.5236 H   0  0  0  0  0  0  0  0  0  0  0  0
    9.0061    4.3535    9.2642 H   0  0  0  0  0  0  0  0  0  0  0  0
  1  3  2  0
  1  4  1  0
  1  5  1  0
  2  4  1  0
  2  6  1  0
  4  9  1  0
  4 15  1  0
  5  6  1  0
  5  8  1  0
  6  7  2  3
  9 10  2  0
  9 14  1  0
 10 11  1  0
 11 12  2  0
 12 13  1  0
 13 14  2  0
 15 16  2  0
 15 20  1  0
 16 17  1  0
 17 18  2  0
 18 19  1  0
 19 20  2  0
  2 21  1  0
  7 22  1  0
  8 23  1  0
  8 24  1  0
  8 25  1  0
 10 26  1  0
 11 27  1  0
 12 28  1  0
 13 29  1  0
 14 30  1  0
 16 31  1  0
 17 32  1  0
 19 33  1  0
 20 34  1  0
 35 36  3  0
 36 37  1  0
 37 38  2  0
 38 39  1  0
 39 40  2  0
 40 41  1  0
 41 42  2  0
 42 37  1  0
 38 43  1  0
 39 44  1  0
 40 45  1  0
 42 46  1  0
 18 35  1  0
M  END
>  <attachment_point>  (366) 
32

>  <score>  (366) 
<NA>

$$$$
4djw
     RDKit          3D

 43 45  0  0  0  0  0  0  0  0999 V2000
   22.4950   11.8750   22.5810 C   0  0  0  0  0  0  0  0  0  0  0  0
   22.5380    9.4930   22.4640 N   0  0  0  0  0  0  0  0  0  0  0  0
   22.3600   13.0630   22.3480 O   0  0  0  0  0  0  0  0  0  0  0  0
   22.3390   10.6680   21.5610 C   0  0  0  0  0  0  0  0  0  0  0  0
   22.7860   11.3350   23.8120 N   0  0  0  0  0  0  0  0  0  0  0  0
   22.7800    9.9140   23.7010 C   0  0  0  0  0  0  0  0  0  0  0  0
   22.9970    9.1110   24.7490 N   0  0  0  0  0  0  0  0  0  0  0  0
   23.0220   12.1410   25.0180 C   0  0  0  0  0  0  0  0  0  0  0  0
   20.9020   10.6270   21.0050 C   0  0  0  0  0  0  0  0  0  0  0  0
   20.2720    9.4140   20.7470 C   0  0  0  0  0  0  0  0  0  0  0  0
   18.9690    9.3760   20.2600 C   0  0  0  0  0  0  0  0  0  0  0  0
   18.2800   10.5440   20.0210 C   0  0  0  0  0  0  0  0  0  0  0  0
   18.8920   11.7530   20.2590 C   0  0  0  0  0  0  0  0  0  0  0  0
   20.1950   11.7970   20.7440 C   0  0  0  0  0  0  0  0  0  0  0  0
   23.4880   10.6920   20.5300 C   0  0  0  0  0  0  0  0  0  0  0  0
   23.2110   10.7890   19.1730 C   0  0  0  0  0  0  0  0  0  0  0  0
   24.2350   10.8650   18.2430 C   0  0  0  0  0  0  0  0  0  0  0  0
   25.5500   10.8410   18.6560 C   0  0  0  0  0  0  0  0  0  0  0  0
   25.8710   10.7460   20.0070 C   0  0  0  0  0  0  0  0  0  0  0  0
   24.8260   10.6610   20.9430 C   0  0  0  0  0  0  0  0  0  0  0  0
    0.0000    0.0000    0.0000 H   0  0  0  0  0  0  0  0  0  0  0  0
    0.0000    0.0000    0.0000 H   0  0  0  0  0  0  0  0  0  0  0  0
    0.0000    0.0000    0.0000 H   0  0  0  0  0  0  0  0  0  0  0  0
    0.0000    0.0000    0.0000 H   0  0  0  0  0  0  0  0  0  0  0  0
    0.0000    0.0000    0.0000 H   0  0  0  0  0  0  0  0  0  0  0  0
    0.0000    0.0000    0.0000 H   0  0  0  0  0  0  0  0  0  0  0  0
    0.0000    0.0000    0.0000 H   0  0  0  0  0  0  0  0  0  0  0  0
    0.0000    0.0000    0.0000 H   0  0  0  0  0  0  0  0  0  0  0  0
    0.0000    0.0000    0.0000 H   0  0  0  0  0  0  0  0  0  0  0  0
    0.0000    0.0000    0.0000 H   0  0  0  0  0  0  0  0  0  0  0  0
    0.0000    0.0000    0.0000 H   0  0  0  0  0  0  0  0  0  0  0  0
    0.0000    0.0000    0.0000 H   0  0  0  0  0  0  0  0  0  0  0  0
    0.0000    0.0000    0.0000 H   0  0  0  0  0  0  0  0  0  0  0  0
    0.0000    0.0000    0.0000 H   0  0  0  0  0  0  0  0  0  0  0  0
   12.4616    5.2875    9.0992 C   0  0  0  0  0  0  0  0  0  0  0  0
   10.8887    5.3864    9.9642 P   0  0  0  0  0  5  0  0  0  0  0  0
   10.2037    4.0519    9.8568 O   0  0  0  0  0  0  0  0  0  0  0  0
   11.1079    5.7549   11.6074 O   0  0  0  0  0  0  0  0  0  0  0  0
    9.9264    6.6314    9.3306 O   0  0  0  0  0  0  0  0  0  0  0  0
   12.7073    4.2551    8.7541 H   0  0  0  0  0  0  0  0  0  0  0  0
   12.3900    5.8965    8.1611 H   0  0  0  0  0  0  0  0  0  0  0  0
   10.3150    5.4505   12.0933 H   0  0  0  0  0  0  0  0  0  0  0  0
    9.1960    6.2175    8.8287 H   0  0  0  0  0  0  0  0  0  0  0  0
  1  3  2  0
  1  4  1  0
  1  5  1  0
  2  4  1  0
  2  6  1  0
  4  9  1  0
  4 15  1  0
  5  6  1  0
  5  8  1  0
  6  7  2  3
  9 10  2  0
  9 14  1  0
 10 11  1  0
 11 12  2  0
 12 13  1  0
 13 14  2  0
 15 16  2  0
 15 20  1  0
 16 17  1  0
 17 18  2  0
 18 19  1  0
 19 20  2  0
  2 21  1  0
  7 22  1  0
  8 23  1  0
  8 24  1  0
  8 25  1  0
 10 26  1  0
 11 27  1  0
 12 28  1  0
 13 29  1  0
 14 30  1  0
 16 31  1  0
 17 32  1  0
 19 33  1  0
 20 34  1  0
 35 36  1  0
 36 37  2  0
 36 38  1  0
 36 39  1  0
 35 40  1  0
 35 41  1  0
 38 42  1  0
 39 43  1  0
 18 35  1  0
M  END
>  <attachment_point>  (367) 
32

>  <score>  (367) 
<NA>

$$$$
4djw
     RDKit          3D

 47 50  0  0  0  0  0  0  0  0999 V2000
   22.4950   11.8750   22.5810 C   0  0  0  0  0  0  0  0  0  0  0  0
   22.5380    9.4930   22.4640 N   0  0  0  0  0  0  0  0  0  0  0  0
   22.3600   13.0630   22.3480 O   0  0  0  0  0  0  0  0  0  0  0  0
   22.3390   10.6680   21.5610 C   0  0  0  0  0  0  0  0  0  0  0  0
   22.7860   11.3350   23.8120 N   0  0  0  0  0  0  0  0  0  0  0  0
   22.7800    9.9140   23.7010 C   0  0  0  0  0  0  0  0  0  0  0  0
   22.9970    9.1110   24.7490 N   0  0  0  0  0  0  0  0  0  0  0  0
   23.0220   12.1410   25.0180 C   0  0  0  0  0  0  0  0  0  0  0  0
   20.9020   10.6270   21.0050 C   0  0  0  0  0  0  0  0  0  0  0  0
   20.2720    9.4140   20.7470 C   0  0  0  0  0  0  0  0  0  0  0  0
   18.9690    9.3760   20.2600 C   0  0  0  0  0  0  0  0  0  0  0  0
   18.2800   10.5440   20.0210 C   0  0  0  0  0  0  0  0  0  0  0  0
   18.8920   11.7530   20.2590 C   0  0  0  0  0  0  0  0  0  0  0  0
   20.1950   11.7970   20.7440 C   0  0  0  0  0  0  0  0  0  0  0  0
   23.4880   10.6920   20.5300 C   0  0  0  0  0  0  0  0  0  0  0  0
   23.2110   10.7890   19.1730 C   0  0  0  0  0  0  0  0  0  0  0  0
   24.2350   10.8650   18.2430 C   0  0  0  0  0  0  0  0  0  0  0  0
   25.5500   10.8410   18.6560 C   0  0  0  0  0  0  0  0  0  0  0  0
   25.8710   10.7460   20.0070 C   0  0  0  0  0  0  0  0  0  0  0  0
   24.8260   10.6610   20.9430 C   0  0  0  0  0  0  0  0  0  0  0  0
    0.0000    0.0000    0.0000 H   0  0  0  0  0  0  0  0  0  0  0  0
    0.0000    0.0000    0.0000 H   0  0  0  0  0  0  0  0  0  0  0  0
    0.0000    0.0000    0.0000 H   0  0  0  0  0  0  0  0  0  0  0  0
    0.0000    0.0000    0.0000 H   0  0  0  0  0  0  0  0  0  0  0  0
    0.0000    0.0000    0.0000 H   0  0  0  0  0  0  0  0  0  0  0  0
    0.0000    0.0000    0.0000 H   0  0  0  0  0  0  0  0  0  0  0  0
    0.0000    0.0000    0.0000 H   0  0  0  0  0  0  0  0  0  0  0  0
    0.0000    0.0000    0.0000 H   0  0  0  0  0  0  0  0  0  0  0  0
    0.0000    0.0000    0.0000 H   0  0  0  0  0  0  0  0  0  0  0  0
    0.0000    0.0000    0.0000 H   0  0  0  0  0  0  0  0  0  0  0  0
    0.0000    0.0000    0.0000 H   0  0  0  0  0  0  0  0  0  0  0  0
    0.0000    0.0000    0.0000 H   0  0  0  0  0  0  0  0  0  0  0  0
    0.0000    0.0000    0.0000 H   0  0  0  0  0  0  0  0  0  0  0  0
    0.0000    0.0000    0.0000 H   0  0  0  0  0  0  0  0  0  0  0  0
   12.3835    5.2544    9.0421 C   0  0  0  0  0  0  0  0  0  0  0  0
   11.3475    5.0616    9.6615 O   0  0  0  0  0  0  0  0  0  0  0  0
   12.6883    5.0952    7.6569 C   0  0  0  0  0  0  0  0  0  0  0  0
   11.7453    4.6566    6.7537 C   0  0  0  0  0  0  0  0  0  0  0  0
   12.0548    4.5085    5.4223 C   0  0  0  0  0  0  0  0  0  0  0  0
   13.3192    4.7901    4.9246 C   0  0  0  0  0  0  0  0  0  0  0  0
   13.6952    4.5943    3.2179 Cl  0  0  0  0  0  0  0  0  0  0  0  0
   14.2622    5.2293    5.8307 C   0  0  0  0  0  0  0  0  0  0  0  0
   13.9452    5.3755    7.1636 C   0  0  0  0  0  0  0  0  0  0  0  0
   10.7656    4.4422    7.1615 H   0  0  0  0  0  0  0  0  0  0  0  0
   11.3226    4.1664    4.7131 H   0  0  0  0  0  0  0  0  0  0  0  0
   15.2499    5.4473    5.4297 H   0  0  0  0  0  0  0  0  0  0  0  0
   14.7291    5.7230    7.8189 H   0  0  0  0  0  0  0  0  0  0  0  0
  1  3  2  0
  1  4  1  0
  1  5  1  0
  2  4  1  0
  2  6  1  0
  4  9  1  0
  4 15  1  0
  5  6  1  0
  5  8  1  0
  6  7  2  3
  9 10  2  0
  9 14  1  0
 10 11  1  0
 11 12  2  0
 12 13  1  0
 13 14  2  0
 15 16  2  0
 15 20  1  0
 16 17  1  0
 17 18  2  0
 18 19  1  0
 19 20  2  0
  2 21  1  0
  7 22  1  0
  8 23  1  0
  8 24  1  0
  8 25  1  0
 10 26  1  0
 11 27  1  0
 12 28  1  0
 13 29  1  0
 14 30  1  0
 16 31  1  0
 17 32  1  0
 19 33  1  0
 20 34  1  0
 35 36  2  0
 35 37  1  0
 37 38  2  0
 38 39  1  0
 39 40  2  0
 40 41  1  0
 40 42  1  0
 42 43  2  0
 43 37  1  0
 38 44  1  0
 39 45  1  0
 42 46  1  0
 43 47  1  0
 18 35  1  0
M  END
>  <attachment_point>  (368) 
32

>  <score>  (368) 
<NA>

$$$$
4djw
     RDKit          3D

 48 50  0  0  0  0  0  0  0  0999 V2000
   22.4950   11.8750   22.5810 C   0  0  0  0  0  0  0  0  0  0  0  0
   22.5380    9.4930   22.4640 N   0  0  0  0  0  0  0  0  0  0  0  0
   22.3600   13.0630   22.3480 O   0  0  0  0  0  0  0  0  0  0  0  0
   22.3390   10.6680   21.5610 C   0  0  0  0  0  0  0  0  0  0  0  0
   22.7860   11.3350   23.8120 N   0  0  0  0  0  0  0  0  0  0  0  0
   22.7800    9.9140   23.7010 C   0  0  0  0  0  0  0  0  0  0  0  0
   22.9970    9.1110   24.7490 N   0  0  0  0  0  0  0  0  0  0  0  0
   23.0220   12.1410   25.0180 C   0  0  0  0  0  0  0  0  0  0  0  0
   20.9020   10.6270   21.0050 C   0  0  0  0  0  0  0  0  0  0  0  0
   20.2720    9.4140   20.7470 C   0  0  0  0  0  0  0  0  0  0  0  0
   18.9690    9.3760   20.2600 C   0  0  0  0  0  0  0  0  0  0  0  0
   18.2800   10.5440   20.0210 C   0  0  0  0  0  0  0  0  0  0  0  0
   18.8920   11.7530   20.2590 C   0  0  0  0  0  0  0  0  0  0  0  0
   20.1950   11.7970   20.7440 C   0  0  0  0  0  0  0  0  0  0  0  0
   23.4880   10.6920   20.5300 C   0  0  0  0  0  0  0  0  0  0  0  0
   23.2110   10.7890   19.1730 C   0  0  0  0  0  0  0  0  0  0  0  0
   24.2350   10.8650   18.2430 C   0  0  0  0  0  0  0  0  0  0  0  0
   25.5500   10.8410   18.6560 C   0  0  0  0  0  0  0  0  0  0  0  0
   25.8710   10.7460   20.0070 C   0  0  0  0  0  0  0  0  0  0  0  0
   24.8260   10.6610   20.9430 C   0  0  0  0  0  0  0  0  0  0  0  0
    0.0000    0.0000    0.0000 H   0  0  0  0  0  0  0  0  0  0  0  0
    0.0000    0.0000    0.0000 H   0  0  0  0  0  0  0  0  0  0  0  0
    0.0000    0.0000    0.0000 H   0  0  0  0  0  0  0  0  0  0  0  0
    0.0000    0.0000    0.0000 H   0  0  0  0  0  0  0  0  0  0  0  0
    0.0000    0.0000    0.0000 H   0  0  0  0  0  0  0  0  0  0  0  0
    0.0000    0.0000    0.0000 H   0  0  0  0  0  0  0  0  0  0  0  0
    0.0000    0.0000    0.0000 H   0  0  0  0  0  0  0  0  0  0  0  0
    0.0000    0.0000    0.0000 H   0  0  0  0  0  0  0  0  0  0  0  0
    0.0000    0.0000    0.0000 H   0  0  0  0  0  0  0  0  0  0  0  0
    0.0000    0.0000    0.0000 H   0  0  0  0  0  0  0  0  0  0  0  0
    0.0000    0.0000    0.0000 H   0  0  0  0  0  0  0  0  0  0  0  0
    0.0000    0.0000    0.0000 H   0  0  0  0  0  0  0  0  0  0  0  0
    0.0000    0.0000    0.0000 H   0  0  0  0  0  0  0  0  0  0  0  0
    0.0000    0.0000    0.0000 H   0  0  0  0  0  0  0  0  0  0  0  0
   12.3996    5.2612    9.0539 N   0  0  0  0  0  0  0  0  0  0  0  0
   11.3634    6.1325    8.8446 C   0  0  0  0  0  0  0  0  0  0  0  0
   11.4331    7.2951    9.3687 O   0  0  0  0  0  0  0  0  0  0  0  0
   10.1609    5.7806    8.0324 C   0  0  0  0  0  0  0  0  0  0  0  0
    9.4815    4.5703    8.6788 C   0  0  0  0  0  0  0  0  0  0  0  0
   10.4652    5.5671    6.5895 C   0  0  0  0  0  0  0  0  0  0  0  0
   12.5546    4.3433    8.7566 H   0  0  0  0  0  0  0  0  0  0  0  0
    9.4266    6.6043    8.1098 H   0  0  0  0  0  0  0  0  0  0  0  0
    8.6127    4.8726    9.2995 H   0  0  0  0  0  0  0  0  0  0  0  0
   10.1996    4.0799    9.3992 H   0  0  0  0  0  0  0  0  0  0  0  0
    9.1387    3.8417    7.9137 H   0  0  0  0  0  0  0  0  0  0  0  0
   10.2429    6.4628    5.9607 H   0  0  0  0  0  0  0  0  0  0  0  0
   11.4942    5.2645    6.3713 H   0  0  0  0  0  0  0  0  0  0  0  0
    9.7831    4.7668    6.1960 H   0  0  0  0  0  0  0  0  0  0  0  0
  1  3  2  0
  1  4  1  0
  1  5  1  0
  2  4  1  0
  2  6  1  0
  4  9  1  0
  4 15  1  0
  5  6  1  0
  5  8  1  0
  6  7  2  3
  9 10  2  0
  9 14  1  0
 10 11  1  0
 11 12  2  0
 12 13  1  0
 13 14  2  0
 15 16  2  0
 15 20  1  0
 16 17  1  0
 17 18  2  0
 18 19  1  0
 19 20  2  0
  2 21  1  0
  7 22  1  0
  8 23  1  0
  8 24  1  0
  8 25  1  0
 10 26  1  0
 11 27  1  0
 12 28  1  0
 13 29  1  0
 14 30  1  0
 16 31  1  0
 17 32  1  0
 19 33  1  0
 20 34  1  0
 35 36  1  0
 36 37  2  0
 36 38  1  0
 38 39  1  0
 38 40  1  0
 35 41  1  0
 38 42  1  0
 39 43  1  0
 39 44  1  0
 39 45  1  0
 40 46  1  0
 40 47  1  0
 40 48  1  0
 18 35  1  0
M  END
>  <attachment_point>  (369) 
32

>  <score>  (369) 
<NA>

$$$$
4djw
     RDKit          3D

 47 50  0  0  0  0  0  0  0  0999 V2000
   22.4950   11.8750   22.5810 C   0  0  0  0  0  0  0  0  0  0  0  0
   22.5380    9.4930   22.4640 N   0  0  0  0  0  0  0  0  0  0  0  0
   22.3600   13.0630   22.3480 O   0  0  0  0  0  0  0  0  0  0  0  0
   22.3390   10.6680   21.5610 C   0  0  0  0  0  0  0  0  0  0  0  0
   22.7860   11.3350   23.8120 N   0  0  0  0  0  0  0  0  0  0  0  0
   22.7800    9.9140   23.7010 C   0  0  0  0  0  0  0  0  0  0  0  0
   22.9970    9.1110   24.7490 N   0  0  0  0  0  0  0  0  0  0  0  0
   23.0220   12.1410   25.0180 C   0  0  0  0  0  0  0  0  0  0  0  0
   20.9020   10.6270   21.0050 C   0  0  0  0  0  0  0  0  0  0  0  0
   20.2720    9.4140   20.7470 C   0  0  0  0  0  0  0  0  0  0  0  0
   18.9690    9.3760   20.2600 C   0  0  0  0  0  0  0  0  0  0  0  0
   18.2800   10.5440   20.0210 C   0  0  0  0  0  0  0  0  0  0  0  0
   18.8920   11.7530   20.2590 C   0  0  0  0  0  0  0  0  0  0  0  0
   20.1950   11.7970   20.7440 C   0  0  0  0  0  0  0  0  0  0  0  0
   23.4880   10.6920   20.5300 C   0  0  0  0  0  0  0  0  0  0  0  0
   23.2110   10.7890   19.1730 C   0  0  0  0  0  0  0  0  0  0  0  0
   24.2350   10.8650   18.2430 C   0  0  0  0  0  0  0  0  0  0  0  0
   25.5500   10.8410   18.6560 C   0  0  0  0  0  0  0  0  0  0  0  0
   25.8710   10.7460   20.0070 C   0  0  0  0  0  0  0  0  0  0  0  0
   24.8260   10.6610   20.9430 C   0  0  0  0  0  0  0  0  0  0  0  0
    0.0000    0.0000    0.0000 H   0  0  0  0  0  0  0  0  0  0  0  0
    0.0000    0.0000    0.0000 H   0  0  0  0  0  0  0  0  0  0  0  0
    0.0000    0.0000    0.0000 H   0  0  0  0  0  0  0  0  0  0  0  0
    0.0000    0.0000    0.0000 H   0  0  0  0  0  0  0  0  0  0  0  0
    0.0000    0.0000    0.0000 H   0  0  0  0  0  0  0  0  0  0  0  0
    0.0000    0.0000    0.0000 H   0  0  0  0  0  0  0  0  0  0  0  0
    0.0000    0.0000    0.0000 H   0  0  0  0  0  0  0  0  0  0  0  0
    0.0000    0.0000    0.0000 H   0  0  0  0  0  0  0  0  0  0  0  0
    0.0000    0.0000    0.0000 H   0  0  0  0  0  0  0  0  0  0  0  0
    0.0000    0.0000    0.0000 H   0  0  0  0  0  0  0  0  0  0  0  0
    0.0000    0.0000    0.0000 H   0  0  0  0  0  0  0  0  0  0  0  0
    0.0000    0.0000    0.0000 H   0  0  0  0  0  0  0  0  0  0  0  0
    0.0000    0.0000    0.0000 H   0  0  0  0  0  0  0  0  0  0  0  0
    0.0000    0.0000    0.0000 H   0  0  0  0  0  0  0  0  0  0  0  0
   12.3873    5.2560    9.0449 N   0  0  0  0  0  0  0  0  0  0  0  0
   13.1589    4.1746    8.4115 C   0  0  0  0  0  0  0  0  0  0  0  0
   13.6724    3.2113    9.4802 C   0  0  0  0  0  0  0  0  0  0  0  0
   14.4725    2.0413    9.1218 C   0  0  0  0  0  0  0  0  0  0  0  0
   15.1246    3.2257    9.8052 C   0  0  0  0  0  0  0  0  0  0  0  0
   11.9194    4.8321    9.8787 H   0  0  0  0  0  0  0  0  0  0  0  0
   14.0009    4.6319    7.8559 H   0  0  0  0  0  0  0  0  0  0  0  0
   12.4407    3.6681    7.7458 H   0  0  0  0  0  0  0  0  0  0  0  0
   12.9489    3.0838   10.3184 H   0  0  0  0  0  0  0  0  0  0  0  0
   14.3872    1.1210    9.7599 H   0  0  0  0  0  0  0  0  0  0  0  0
   14.7461    1.8232    8.0724 H   0  0  0  0  0  0  0  0  0  0  0  0
   15.3836    3.1025   10.8874 H   0  0  0  0  0  0  0  0  0  0  0  0
   15.7748    3.8819    9.1763 H   0  0  0  0  0  0  0  0  0  0  0  0
  1  3  2  0
  1  4  1  0
  1  5  1  0
  2  4  1  0
  2  6  1  0
  4  9  1  0
  4 15  1  0
  5  6  1  0
  5  8  1  0
  6  7  2  3
  9 10  2  0
  9 14  1  0
 10 11  1  0
 11 12  2  0
 12 13  1  0
 13 14  2  0
 15 16  2  0
 15 20  1  0
 16 17  1  0
 17 18  2  0
 18 19  1  0
 19 20  2  0
  2 21  1  0
  7 22  1  0
  8 23  1  0
  8 24  1  0
  8 25  1  0
 10 26  1  0
 11 27  1  0
 12 28  1  0
 13 29  1  0
 14 30  1  0
 16 31  1  0
 17 32  1  0
 19 33  1  0
 20 34  1  0
 35 36  1  0
 36 37  1  0
 37 38  1  0
 38 39  1  0
 39 37  1  0
 35 40  1  0
 36 41  1  0
 36 42  1  0
 37 43  1  0
 38 44  1  0
 38 45  1  0
 39 46  1  0
 39 47  1  0
 18 35  1  0
M  END
>  <attachment_point>  (370) 
32

>  <score>  (370) 
<NA>

$$$$
4djw
     RDKit          3D

 45 48  0  0  0  0  0  0  0  0999 V2000
   22.4950   11.8750   22.5810 C   0  0  0  0  0  0  0  0  0  0  0  0
   22.5380    9.4930   22.4640 N   0  0  0  0  0  0  0  0  0  0  0  0
   22.3600   13.0630   22.3480 O   0  0  0  0  0  0  0  0  0  0  0  0
   22.3390   10.6680   21.5610 C   0  0  0  0  0  0  0  0  0  0  0  0
   22.7860   11.3350   23.8120 N   0  0  0  0  0  0  0  0  0  0  0  0
   22.7800    9.9140   23.7010 C   0  0  0  0  0  0  0  0  0  0  0  0
   22.9970    9.1110   24.7490 N   0  0  0  0  0  0  0  0  0  0  0  0
   23.0220   12.1410   25.0180 C   0  0  0  0  0  0  0  0  0  0  0  0
   20.9020   10.6270   21.0050 C   0  0  0  0  0  0  0  0  0  0  0  0
   20.2720    9.4140   20.7470 C   0  0  0  0  0  0  0  0  0  0  0  0
   18.9690    9.3760   20.2600 C   0  0  0  0  0  0  0  0  0  0  0  0
   18.2800   10.5440   20.0210 C   0  0  0  0  0  0  0  0  0  0  0  0
   18.8920   11.7530   20.2590 C   0  0  0  0  0  0  0  0  0  0  0  0
   20.1950   11.7970   20.7440 C   0  0  0  0  0  0  0  0  0  0  0  0
   23.4880   10.6920   20.5300 C   0  0  0  0  0  0  0  0  0  0  0  0
   23.2110   10.7890   19.1730 C   0  0  0  0  0  0  0  0  0  0  0  0
   24.2350   10.8650   18.2430 C   0  0  0  0  0  0  0  0  0  0  0  0
   25.5500   10.8410   18.6560 C   0  0  0  0  0  0  0  0  0  0  0  0
   25.8710   10.7460   20.0070 C   0  0  0  0  0  0  0  0  0  0  0  0
   24.8260   10.6610   20.9430 C   0  0  0  0  0  0  0  0  0  0  0  0
    0.0000    0.0000    0.0000 H   0  0  0  0  0  0  0  0  0  0  0  0
    0.0000    0.0000    0.0000 H   0  0  0  0  0  0  0  0  0  0  0  0
    0.0000    0.0000    0.0000 H   0  0  0  0  0  0  0  0  0  0  0  0
    0.0000    0.0000    0.0000 H   0  0  0  0  0  0  0  0  0  0  0  0
    0.0000    0.0000    0.0000 H   0  0  0  0  0  0  0  0  0  0  0  0
    0.0000    0.0000    0.0000 H   0  0  0  0  0  0  0  0  0  0  0  0
    0.0000    0.0000    0.0000 H   0  0  0  0  0  0  0  0  0  0  0  0
    0.0000    0.0000    0.0000 H   0  0  0  0  0  0  0  0  0  0  0  0
    0.0000    0.0000    0.0000 H   0  0  0  0  0  0  0  0  0  0  0  0
    0.0000    0.0000    0.0000 H   0  0  0  0  0  0  0  0  0  0  0  0
    0.0000    0.0000    0.0000 H   0  0  0  0  0  0  0  0  0  0  0  0
    0.0000    0.0000    0.0000 H   0  0  0  0  0  0  0  0  0  0  0  0
    0.0000    0.0000    0.0000 H   0  0  0  0  0  0  0  0  0  0  0  0
    0.0000    0.0000    0.0000 H   0  0  0  0  0  0  0  0  0  0  0  0
   12.4175    5.2688    9.0670 C   0  0  0  0  0  0  0  0  0  0  0  0
   11.0936    5.4771    9.3802 C   0  0  0  0  0  0  0  0  0  0  0  0
   10.4233    4.8533    8.3268 C   0  0  0  0  0  0  0  0  0  0  0  0
   11.2999    4.3176    7.4587 N   0  0  0  0  0  0  0  0  0  0  0  0
   10.9922    3.5830    6.2303 C   0  0  0  0  0  0  0  0  0  0  0  0
   12.5045    4.5867    7.9359 N   0  0  0  0  0  0  0  0  0  0  0  0
   10.6625    5.9941   10.2284 H   0  0  0  0  0  0  0  0  0  0  0  0
    9.3397    4.8086    8.2254 H   0  0  0  0  0  0  0  0  0  0  0  0
   10.6870    2.5307    6.4638 H   0  0  0  0  0  0  0  0  0  0  0  0
   11.9258    3.5183    5.6403 H   0  0  0  0  0  0  0  0  0  0  0  0
   10.1881    4.0981    5.6708 H   0  0  0  0  0  0  0  0  0  0  0  0
  1  3  2  0
  1  4  1  0
  1  5  1  0
  2  4  1  0
  2  6  1  0
  4  9  1  0
  4 15  1  0
  5  6  1  0
  5  8  1  0
  6  7  2  3
  9 10  2  0
  9 14  1  0
 10 11  1  0
 11 12  2  0
 12 13  1  0
 13 14  2  0
 15 16  2  0
 15 20  1  0
 16 17  1  0
 17 18  2  0
 18 19  1  0
 19 20  2  0
  2 21  1  0
  7 22  1  0
  8 23  1  0
  8 24  1  0
  8 25  1  0
 10 26  1  0
 11 27  1  0
 12 28  1  0
 13 29  1  0
 14 30  1  0
 16 31  1  0
 17 32  1  0
 19 33  1  0
 20 34  1  0
 35 36  1  0
 36 37  2  0
 37 38  1  0
 38 39  1  0
 38 40  1  0
 40 35  2  0
 36 41  1  0
 37 42  1  0
 39 43  1  0
 39 44  1  0
 39 45  1  0
 18 35  1  0
M  END
>  <attachment_point>  (371) 
32

>  <score>  (371) 
<NA>

$$$$
4djw
     RDKit          3D

 55 58  0  0  0  0  0  0  0  0999 V2000
   22.4950   11.8750   22.5810 C   0  0  0  0  0  0  0  0  0  0  0  0
   22.5380    9.4930   22.4640 N   0  0  0  0  0  0  0  0  0  0  0  0
   22.3600   13.0630   22.3480 O   0  0  0  0  0  0  0  0  0  0  0  0
   22.3390   10.6680   21.5610 C   0  0  0  0  0  0  0  0  0  0  0  0
   22.7860   11.3350   23.8120 N   0  0  0  0  0  0  0  0  0  0  0  0
   22.7800    9.9140   23.7010 C   0  0  0  0  0  0  0  0  0  0  0  0
   22.9970    9.1110   24.7490 N   0  0  0  0  0  0  0  0  0  0  0  0
   23.0220   12.1410   25.0180 C   0  0  0  0  0  0  0  0  0  0  0  0
   20.9020   10.6270   21.0050 C   0  0  0  0  0  0  0  0  0  0  0  0
   20.2720    9.4140   20.7470 C   0  0  0  0  0  0  0  0  0  0  0  0
   18.9690    9.3760   20.2600 C   0  0  0  0  0  0  0  0  0  0  0  0
   18.2800   10.5440   20.0210 C   0  0  0  0  0  0  0  0  0  0  0  0
   18.8920   11.7530   20.2590 C   0  0  0  0  0  0  0  0  0  0  0  0
   20.1950   11.7970   20.7440 C   0  0  0  0  0  0  0  0  0  0  0  0
   23.4880   10.6920   20.5300 C   0  0  0  0  0  0  0  0  0  0  0  0
   23.2110   10.7890   19.1730 C   0  0  0  0  0  0  0  0  0  0  0  0
   24.2350   10.8650   18.2430 C   0  0  0  0  0  0  0  0  0  0  0  0
   25.5500   10.8410   18.6560 C   0  0  0  0  0  0  0  0  0  0  0  0
   25.8710   10.7460   20.0070 C   0  0  0  0  0  0  0  0  0  0  0  0
   24.8260   10.6610   20.9430 C   0  0  0  0  0  0  0  0  0  0  0  0
    0.0000    0.0000    0.0000 H   0  0  0  0  0  0  0  0  0  0  0  0
    0.0000    0.0000    0.0000 H   0  0  0  0  0  0  0  0  0  0  0  0
    0.0000    0.0000    0.0000 H   0  0  0  0  0  0  0  0  0  0  0  0
    0.0000    0.0000    0.0000 H   0  0  0  0  0  0  0  0  0  0  0  0
    0.0000    0.0000    0.0000 H   0  0  0  0  0  0  0  0  0  0  0  0
    0.0000    0.0000    0.0000 H   0  0  0  0  0  0  0  0  0  0  0  0
    0.0000    0.0000    0.0000 H   0  0  0  0  0  0  0  0  0  0  0  0
    0.0000    0.0000    0.0000 H   0  0  0  0  0  0  0  0  0  0  0  0
    0.0000    0.0000    0.0000 H   0  0  0  0  0  0  0  0  0  0  0  0
    0.0000    0.0000    0.0000 H   0  0  0  0  0  0  0  0  0  0  0  0
    0.0000    0.0000    0.0000 H   0  0  0  0  0  0  0  0  0  0  0  0
    0.0000    0.0000    0.0000 H   0  0  0  0  0  0  0  0  0  0  0  0
    0.0000    0.0000    0.0000 H   0  0  0  0  0  0  0  0  0  0  0  0
    0.0000    0.0000    0.0000 H   0  0  0  0  0  0  0  0  0  0  0  0
   12.4893    5.2993    9.1194 N   0  0  0  0  0  0  0  0  0  0  0  0
   11.5409    6.3424    8.7049 C   0  0  0  0  0  0  0  0  0  0  0  0
   12.1559    7.0465    7.5417 C   0  0  0  0  0  0  0  0  0  0  0  0
   13.2578    6.1024    7.1116 C   0  0  1  0  0  0  0  0  0  0  0  0
   14.5384    6.6656    7.3832 N   0  0  0  0  0  0  0  0  0  0  0  0
   14.7775    6.9570    8.7702 C   0  0  0  0  0  0  0  0  0  0  0  0
   15.5856    5.7645    6.9371 C   0  0  0  0  0  0  0  0  0  0  0  0
   12.9651    4.8298    7.8410 C   0  0  0  0  0  0  0  0  0  0  0  0
   10.5853    5.8271    8.4411 H   0  0  0  0  0  0  0  0  0  0  0  0
   11.3333    7.0104    9.5540 H   0  0  0  0  0  0  0  0  0  0  0  0
   11.3799    7.1068    6.7376 H   0  0  0  0  0  0  0  0  0  0  0  0
   12.5422    8.0591    7.7947 H   0  0  0  0  0  0  0  0  0  0  0  0
   13.1710    5.9335    6.0278 H   0  0  0  0  0  0  0  0  0  0  0  0
   14.7981    6.0478    9.3868 H   0  0  0  0  0  0  0  0  0  0  0  0
   15.8275    7.3754    8.8165 H   0  0  0  0  0  0  0  0  0  0  0  0
   14.0896    7.7247    9.1809 H   0  0  0  0  0  0  0  0  0  0  0  0
   15.4003    5.3737    5.9149 H   0  0  0  0  0  0  0  0  0  0  0  0
   15.6395    4.9148    7.6546 H   0  0  0  0  0  0  0  0  0  0  0  0
   16.5383    6.3302    7.0181 H   0  0  0  0  0  0  0  0  0  0  0  0
   13.7772    4.1150    7.8863 H   0  0  0  0  0  0  0  0  0  0  0  0
   12.1043    4.3191    7.3380 H   0  0  0  0  0  0  0  0  0  0  0  0
  1  3  2  0
  1  4  1  0
  1  5  1  0
  2  4  1  0
  2  6  1  0
  4  9  1  0
  4 15  1  0
  5  6  1  0
  5  8  1  0
  6  7  2  3
  9 10  2  0
  9 14  1  0
 10 11  1  0
 11 12  2  0
 12 13  1  0
 13 14  2  0
 15 16  2  0
 15 20  1  0
 16 17  1  0
 17 18  2  0
 18 19  1  0
 19 20  2  0
  2 21  1  0
  7 22  1  0
  8 23  1  0
  8 24  1  0
  8 25  1  0
 10 26  1  0
 11 27  1  0
 12 28  1  0
 13 29  1  0
 14 30  1  0
 16 31  1  0
 17 32  1  0
 19 33  1  0
 20 34  1  0
 35 36  1  0
 36 37  1  0
 37 38  1  0
 38 39  1  0
 39 40  1  0
 39 41  1  0
 38 42  1  0
 42 35  1  0
 36 43  1  0
 36 44  1  0
 37 45  1  0
 37 46  1  0
 38 47  1  6
 40 48  1  0
 40 49  1  0
 40 50  1  0
 41 51  1  0
 41 52  1  0
 41 53  1  0
 42 54  1  0
 42 55  1  0
 18 35  1  0
M  END
>  <attachment_point>  (372) 
32

>  <score>  (372) 
<NA>

$$$$
4djw
     RDKit          3D

 54 58  0  0  0  0  0  0  0  0999 V2000
   22.4950   11.8750   22.5810 C   0  0  0  0  0  0  0  0  0  0  0  0
   22.5380    9.4930   22.4640 N   0  0  0  0  0  0  0  0  0  0  0  0
   22.3600   13.0630   22.3480 O   0  0  0  0  0  0  0  0  0  0  0  0
   22.3390   10.6680   21.5610 C   0  0  0  0  0  0  0  0  0  0  0  0
   22.7860   11.3350   23.8120 N   0  0  0  0  0  0  0  0  0  0  0  0
   22.7800    9.9140   23.7010 C   0  0  0  0  0  0  0  0  0  0  0  0
   22.9970    9.1110   24.7490 N   0  0  0  0  0  0  0  0  0  0  0  0
   23.0220   12.1410   25.0180 C   0  0  0  0  0  0  0  0  0  0  0  0
   20.9020   10.6270   21.0050 C   0  0  0  0  0  0  0  0  0  0  0  0
   20.2720    9.4140   20.7470 C   0  0  0  0  0  0  0  0  0  0  0  0
   18.9690    9.3760   20.2600 C   0  0  0  0  0  0  0  0  0  0  0  0
   18.2800   10.5440   20.0210 C   0  0  0  0  0  0  0  0  0  0  0  0
   18.8920   11.7530   20.2590 C   0  0  0  0  0  0  0  0  0  0  0  0
   20.1950   11.7970   20.7440 C   0  0  0  0  0  0  0  0  0  0  0  0
   23.4880   10.6920   20.5300 C   0  0  0  0  0  0  0  0  0  0  0  0
   23.2110   10.7890   19.1730 C   0  0  0  0  0  0  0  0  0  0  0  0
   24.2350   10.8650   18.2430 C   0  0  0  0  0  0  0  0  0  0  0  0
   25.5500   10.8410   18.6560 C   0  0  0  0  0  0  0  0  0  0  0  0
   25.8710   10.7460   20.0070 C   0  0  0  0  0  0  0  0  0  0  0  0
   24.8260   10.6610   20.9430 C   0  0  0  0  0  0  0  0  0  0  0  0
    0.0000    0.0000    0.0000 H   0  0  0  0  0  0  0  0  0  0  0  0
    0.0000    0.0000    0.0000 H   0  0  0  0  0  0  0  0  0  0  0  0
    0.0000    0.0000    0.0000 H   0  0  0  0  0  0  0  0  0  0  0  0
    0.0000    0.0000    0.0000 H   0  0  0  0  0  0  0  0  0  0  0  0
    0.0000    0.0000    0.0000 H   0  0  0  0  0  0  0  0  0  0  0  0
    0.0000    0.0000    0.0000 H   0  0  0  0  0  0  0  0  0  0  0  0
    0.0000    0.0000    0.0000 H   0  0  0  0  0  0  0  0  0  0  0  0
    0.0000    0.0000    0.0000 H   0  0  0  0  0  0  0  0  0  0  0  0
    0.0000    0.0000    0.0000 H   0  0  0  0  0  0  0  0  0  0  0  0
    0.0000    0.0000    0.0000 H   0  0  0  0  0  0  0  0  0  0  0  0
    0.0000    0.0000    0.0000 H   0  0  0  0  0  0  0  0  0  0  0  0
    0.0000    0.0000    0.0000 H   0  0  0  0  0  0  0  0  0  0  0  0
    0.0000    0.0000    0.0000 H   0  0  0  0  0  0  0  0  0  0  0  0
    0.0000    0.0000    0.0000 H   0  0  0  0  0  0  0  0  0  0  0  0
   12.5095    5.3079    9.1342 N   0  0  0  0  0  0  0  0  0  0  0  0
   12.3978    3.9101    8.9007 C   0  0  0  0  0  0  0  0  0  0  0  0
   11.0752    3.4507    8.3767 C   0  0  0  0  0  0  0  0  0  0  0  0
    9.9941    4.1454    9.1320 C   0  0  0  0  0  0  0  0  0  0  0  0
    8.8767    3.4872    9.6210 C   0  0  0  0  0  0  0  0  0  0  0  0
    7.9203    4.2247   10.3145 C   0  0  0  0  0  0  0  0  0  0  0  0
    8.0756    5.5793   10.5135 C   0  0  0  0  0  0  0  0  0  0  0  0
    9.1986    6.2057   10.0146 C   0  0  0  0  0  0  0  0  0  0  0  0
   10.1665    5.5013    9.3216 C   0  0  0  0  0  0  0  0  0  0  0  0
   11.3958    6.1148    8.7609 C   0  0  0  0  0  0  0  0  0  0  0  0
   13.2140    3.5246    8.2226 H   0  0  0  0  0  0  0  0  0  0  0  0
   12.5514    3.3924    9.8916 H   0  0  0  0  0  0  0  0  0  0  0  0
   11.0096    3.7213    7.2857 H   0  0  0  0  0  0  0  0  0  0  0  0
   10.9186    2.3764    8.4369 H   0  0  0  0  0  0  0  0  0  0  0  0
    8.7707    2.4223    9.4554 H   0  0  0  0  0  0  0  0  0  0  0  0
    7.0371    3.7104   10.7023 H   0  0  0  0  0  0  0  0  0  0  0  0
    7.3521    6.1724   11.0455 H   0  0  0  0  0  0  0  0  0  0  0  0
    9.3763    7.2836   10.1425 H   0  0  0  0  0  0  0  0  0  0  0  0
   11.3089    6.2899    7.6627 H   0  0  0  0  0  0  0  0  0  0  0  0
   11.5070    7.1049    9.2782 H   0  0  0  0  0  0  0  0  0  0  0  0
  1  3  2  0
  1  4  1  0
  1  5  1  0
  2  4  1  0
  2  6  1  0
  4  9  1  0
  4 15  1  0
  5  6  1  0
  5  8  1  0
  6  7  2  3
  9 10  2  0
  9 14  1  0
 10 11  1  0
 11 12  2  0
 12 13  1  0
 13 14  2  0
 15 16  2  0
 15 20  1  0
 16 17  1  0
 17 18  2  0
 18 19  1  0
 19 20  2  0
  2 21  1  0
  7 22  1  0
  8 23  1  0
  8 24  1  0
  8 25  1  0
 10 26  1  0
 11 27  1  0
 12 28  1  0
 13 29  1  0
 14 30  1  0
 16 31  1  0
 17 32  1  0
 19 33  1  0
 20 34  1  0
 35 36  1  0
 36 37  1  0
 37 38  1  0
 38 39  2  0
 39 40  1  0
 40 41  2  0
 41 42  1  0
 42 43  2  0
 43 44  1  0
 44 35  1  0
 43 38  1  0
 36 45  1  0
 36 46  1  0
 37 47  1  0
 37 48  1  0
 39 49  1  0
 40 50  1  0
 41 51  1  0
 42 52  1  0
 44 53  1  0
 44 54  1  0
 18 35  1  0
M  END
>  <attachment_point>  (373) 
32

>  <score>  (373) 
<NA>

$$$$
4djw
     RDKit          3D

 45 48  0  0  0  0  0  0  0  0999 V2000
   22.4950   11.8750   22.5810 C   0  0  0  0  0  0  0  0  0  0  0  0
   22.5380    9.4930   22.4640 N   0  0  0  0  0  0  0  0  0  0  0  0
   22.3600   13.0630   22.3480 O   0  0  0  0  0  0  0  0  0  0  0  0
   22.3390   10.6680   21.5610 C   0  0  0  0  0  0  0  0  0  0  0  0
   22.7860   11.3350   23.8120 N   0  0  0  0  0  0  0  0  0  0  0  0
   22.7800    9.9140   23.7010 C   0  0  0  0  0  0  0  0  0  0  0  0
   22.9970    9.1110   24.7490 N   0  0  0  0  0  0  0  0  0  0  0  0
   23.0220   12.1410   25.0180 C   0  0  0  0  0  0  0  0  0  0  0  0
   20.9020   10.6270   21.0050 C   0  0  0  0  0  0  0  0  0  0  0  0
   20.2720    9.4140   20.7470 C   0  0  0  0  0  0  0  0  0  0  0  0
   18.9690    9.3760   20.2600 C   0  0  0  0  0  0  0  0  0  0  0  0
   18.2800   10.5440   20.0210 C   0  0  0  0  0  0  0  0  0  0  0  0
   18.8920   11.7530   20.2590 C   0  0  0  0  0  0  0  0  0  0  0  0
   20.1950   11.7970   20.7440 C   0  0  0  0  0  0  0  0  0  0  0  0
   23.4880   10.6920   20.5300 C   0  0  0  0  0  0  0  0  0  0  0  0
   23.2110   10.7890   19.1730 C   0  0  0  0  0  0  0  0  0  0  0  0
   24.2350   10.8650   18.2430 C   0  0  0  0  0  0  0  0  0  0  0  0
   25.5500   10.8410   18.6560 C   0  0  0  0  0  0  0  0  0  0  0  0
   25.8710   10.7460   20.0070 C   0  0  0  0  0  0  0  0  0  0  0  0
   24.8260   10.6610   20.9430 C   0  0  0  0  0  0  0  0  0  0  0  0
    0.0000    0.0000    0.0000 H   0  0  0  0  0  0  0  0  0  0  0  0
    0.0000    0.0000    0.0000 H   0  0  0  0  0  0  0  0  0  0  0  0
    0.0000    0.0000    0.0000 H   0  0  0  0  0  0  0  0  0  0  0  0
    0.0000    0.0000    0.0000 H   0  0  0  0  0  0  0  0  0  0  0  0
    0.0000    0.0000    0.0000 H   0  0  0  0  0  0  0  0  0  0  0  0
    0.0000    0.0000    0.0000 H   0  0  0  0  0  0  0  0  0  0  0  0
    0.0000    0.0000    0.0000 H   0  0  0  0  0  0  0  0  0  0  0  0
    0.0000    0.0000    0.0000 H   0  0  0  0  0  0  0  0  0  0  0  0
    0.0000    0.0000    0.0000 H   0  0  0  0  0  0  0  0  0  0  0  0
    0.0000    0.0000    0.0000 H   0  0  0  0  0  0  0  0  0  0  0  0
    0.0000    0.0000    0.0000 H   0  0  0  0  0  0  0  0  0  0  0  0
    0.0000    0.0000    0.0000 H   0  0  0  0  0  0  0  0  0  0  0  0
    0.0000    0.0000    0.0000 H   0  0  0  0  0  0  0  0  0  0  0  0
    0.0000    0.0000    0.0000 H   0  0  0  0  0  0  0  0  0  0  0  0
   12.4730    5.2924    9.1075 C   0  0  2  0  0  0  0  0  0  0  0  0
   11.1130    5.8502    9.5585 C   0  0  0  0  0  0  0  0  0  0  0  0
   10.6159    4.7452   10.2738 O   0  0  0  0  0  0  0  0  0  0  0  0
   11.1285    3.5737    9.7524 C   0  0  0  0  0  0  0  0  0  0  0  0
   10.5812    2.2376    9.9184 N   0  0  0  0  0  0  0  0  0  0  0  0
   12.1852    3.8769    9.0880 N   0  0  0  0  0  0  0  0  0  0  0  0
   12.6163    5.5914    8.0299 H   0  0  0  0  0  0  0  0  0  0  0  0
   10.4797    5.9866    8.6693 H   0  0  0  0  0  0  0  0  0  0  0  0
   11.2371    6.7542   10.1738 H   0  0  0  0  0  0  0  0  0  0  0  0
   10.2111    1.9493   10.8491 H   0  0  0  0  0  0  0  0  0  0  0  0
   10.5392    1.5466    9.1489 H   0  0  0  0  0  0  0  0  0  0  0  0
  1  3  2  0
  1  4  1  0
  1  5  1  0
  2  4  1  0
  2  6  1  0
  4  9  1  0
  4 15  1  0
  5  6  1  0
  5  8  1  0
  6  7  2  3
  9 10  2  0
  9 14  1  0
 10 11  1  0
 11 12  2  0
 12 13  1  0
 13 14  2  0
 15 16  2  0
 15 20  1  0
 16 17  1  0
 17 18  2  0
 18 19  1  0
 19 20  2  0
  2 21  1  0
  7 22  1  0
  8 23  1  0
  8 24  1  0
  8 25  1  0
 10 26  1  0
 11 27  1  0
 12 28  1  0
 13 29  1  0
 14 30  1  0
 16 31  1  0
 17 32  1  0
 19 33  1  0
 20 34  1  0
 35 36  1  0
 36 37  1  0
 37 38  1  0
 38 39  1  0
 38 40  2  0
 40 35  1  0
 35 41  1  1
 36 42  1  0
 36 43  1  0
 39 44  1  0
 39 45  1  0
 18 35  1  0
M  END
>  <attachment_point>  (374) 
32

>  <score>  (374) 
<NA>

$$$$
4djw
     RDKit          3D

 58 62  0  0  0  0  0  0  0  0999 V2000
   22.4950   11.8750   22.5810 C   0  0  0  0  0  0  0  0  0  0  0  0
   22.5380    9.4930   22.4640 N   0  0  0  0  0  0  0  0  0  0  0  0
   22.3600   13.0630   22.3480 O   0  0  0  0  0  0  0  0  0  0  0  0
   22.3390   10.6680   21.5610 C   0  0  0  0  0  0  0  0  0  0  0  0
   22.7860   11.3350   23.8120 N   0  0  0  0  0  0  0  0  0  0  0  0
   22.7800    9.9140   23.7010 C   0  0  0  0  0  0  0  0  0  0  0  0
   22.9970    9.1110   24.7490 N   0  0  0  0  0  0  0  0  0  0  0  0
   23.0220   12.1410   25.0180 C   0  0  0  0  0  0  0  0  0  0  0  0
   20.9020   10.6270   21.0050 C   0  0  0  0  0  0  0  0  0  0  0  0
   20.2720    9.4140   20.7470 C   0  0  0  0  0  0  0  0  0  0  0  0
   18.9690    9.3760   20.2600 C   0  0  0  0  0  0  0  0  0  0  0  0
   18.2800   10.5440   20.0210 C   0  0  0  0  0  0  0  0  0  0  0  0
   18.8920   11.7530   20.2590 C   0  0  0  0  0  0  0  0  0  0  0  0
   20.1950   11.7970   20.7440 C   0  0  0  0  0  0  0  0  0  0  0  0
   23.4880   10.6920   20.5300 C   0  0  0  0  0  0  0  0  0  0  0  0
   23.2110   10.7890   19.1730 C   0  0  0  0  0  0  0  0  0  0  0  0
   24.2350   10.8650   18.2430 C   0  0  0  0  0  0  0  0  0  0  0  0
   25.5500   10.8410   18.6560 C   0  0  0  0  0  0  0  0  0  0  0  0
   25.8710   10.7460   20.0070 C   0  0  0  0  0  0  0  0  0  0  0  0
   24.8260   10.6610   20.9430 C   0  0  0  0  0  0  0  0  0  0  0  0
    0.0000    0.0000    0.0000 H   0  0  0  0  0  0  0  0  0  0  0  0
    0.0000    0.0000    0.0000 H   0  0  0  0  0  0  0  0  0  0  0  0
    0.0000    0.0000    0.0000 H   0  0  0  0  0  0  0  0  0  0  0  0
    0.0000    0.0000    0.0000 H   0  0  0  0  0  0  0  0  0  0  0  0
    0.0000    0.0000    0.0000 H   0  0  0  0  0  0  0  0  0  0  0  0
    0.0000    0.0000    0.0000 H   0  0  0  0  0  0  0  0  0  0  0  0
    0.0000    0.0000    0.0000 H   0  0  0  0  0  0  0  0  0  0  0  0
    0.0000    0.0000    0.0000 H   0  0  0  0  0  0  0  0  0  0  0  0
    0.0000    0.0000    0.0000 H   0  0  0  0  0  0  0  0  0  0  0  0
    0.0000    0.0000    0.0000 H   0  0  0  0  0  0  0  0  0  0  0  0
    0.0000    0.0000    0.0000 H   0  0  0  0  0  0  0  0  0  0  0  0
    0.0000    0.0000    0.0000 H   0  0  0  0  0  0  0  0  0  0  0  0
    0.0000    0.0000    0.0000 H   0  0  0  0  0  0  0  0  0  0  0  0
    0.0000    0.0000    0.0000 H   0  0  0  0  0  0  0  0  0  0  0  0
   12.4224    5.2709    9.0705 C   0  0  0  0  0  0  0  0  0  0  0  0
   11.4092    6.1219    8.7578 C   0  0  0  0  0  0  0  0  0  0  0  0
   10.3471    5.6524    7.9760 C   0  0  0  0  0  0  0  0  0  0  0  0
   10.3268    4.3598    7.5330 C   0  0  0  0  0  0  0  0  0  0  0  0
    9.2656    3.8615    6.7437 N   0  0  0  0  0  0  0  0  0  0  0  0
    8.1652    4.7585    6.4410 C   0  0  0  0  0  0  0  0  0  0  0  0
    6.9980    3.9389    6.0032 C   0  0  0  0  0  0  0  0  0  0  0  0
    7.3661    3.0720    4.9805 O   0  0  0  0  0  0  0  0  0  0  0  0
    8.2155    2.0767    5.3888 C   0  0  0  0  0  0  0  0  0  0  0  0
    9.3240    2.5017    6.2791 C   0  0  0  0  0  0  0  0  0  0  0  0
   11.3654    3.5252    7.8661 C   0  0  0  0  0  0  0  0  0  0  0  0
   12.4320    3.9782    8.6450 C   0  0  0  0  0  0  0  0  0  0  0  0
   11.4342    7.1485    9.1150 H   0  0  0  0  0  0  0  0  0  0  0  0
    9.5511    6.3513    7.7399 H   0  0  0  0  0  0  0  0  0  0  0  0
    8.4625    5.4987    5.6785 H   0  0  0  0  0  0  0  0  0  0  0  0
    7.8574    5.2807    7.3898 H   0  0  0  0  0  0  0  0  0  0  0  0
    6.2393    4.6344    5.5682 H   0  0  0  0  0  0  0  0  0  0  0  0
    6.5305    3.4158    6.8565 H   0  0  0  0  0  0  0  0  0  0  0  0
    8.6806    1.6460    4.4533 H   0  0  0  0  0  0  0  0  0  0  0  0
    7.6691    1.1997    5.8369 H   0  0  0  0  0  0  0  0  0  0  0  0
    9.3620    1.8501    7.1809 H   0  0  0  0  0  0  0  0  0  0  0  0
   10.3368    2.3850    5.7919 H   0  0  0  0  0  0  0  0  0  0  0  0
   11.3803    2.5074    7.5359 H   0  0  0  0  0  0  0  0  0  0  0  0
   13.2484    3.3218    8.9067 H   0  0  0  0  0  0  0  0  0  0  0  0
  1  3  2  0
  1  4  1  0
  1  5  1  0
  2  4  1  0
  2  6  1  0
  4  9  1  0
  4 15  1  0
  5  6  1  0
  5  8  1  0
  6  7  2  3
  9 10  2  0
  9 14  1  0
 10 11  1  0
 11 12  2  0
 12 13  1  0
 13 14  2  0
 15 16  2  0
 15 20  1  0
 16 17  1  0
 17 18  2  0
 18 19  1  0
 19 20  2  0
  2 21  1  0
  7 22  1  0
  8 23  1  0
  8 24  1  0
  8 25  1  0
 10 26  1  0
 11 27  1  0
 12 28  1  0
 13 29  1  0
 14 30  1  0
 16 31  1  0
 17 32  1  0
 19 33  1  0
 20 34  1  0
 35 36  2  0
 36 37  1  0
 37 38  2  0
 38 39  1  0
 39 40  1  0
 40 41  1  0
 41 42  1  0
 42 43  1  0
 43 44  1  0
 38 45  1  0
 45 46  2  0
 46 35  1  0
 44 39  1  0
 36 47  1  0
 37 48  1  0
 40 49  1  0
 40 50  1  0
 41 51  1  0
 41 52  1  0
 43 53  1  0
 43 54  1  0
 44 55  1  0
 44 56  1  0
 45 57  1  0
 46 58  1  0
 18 35  1  0
M  END
>  <attachment_point>  (375) 
32

>  <score>  (375) 
<NA>

$$$$
4djw
     RDKit          3D

 44 47  0  0  0  0  0  0  0  0999 V2000
   22.4950   11.8750   22.5810 C   0  0  0  0  0  0  0  0  0  0  0  0
   22.5380    9.4930   22.4640 N   0  0  0  0  0  0  0  0  0  0  0  0
   22.3600   13.0630   22.3480 O   0  0  0  0  0  0  0  0  0  0  0  0
   22.3390   10.6680   21.5610 C   0  0  0  0  0  0  0  0  0  0  0  0
   22.7860   11.3350   23.8120 N   0  0  0  0  0  0  0  0  0  0  0  0
   22.7800    9.9140   23.7010 C   0  0  0  0  0  0  0  0  0  0  0  0
   22.9970    9.1110   24.7490 N   0  0  0  0  0  0  0  0  0  0  0  0
   23.0220   12.1410   25.0180 C   0  0  0  0  0  0  0  0  0  0  0  0
   20.9020   10.6270   21.0050 C   0  0  0  0  0  0  0  0  0  0  0  0
   20.2720    9.4140   20.7470 C   0  0  0  0  0  0  0  0  0  0  0  0
   18.9690    9.3760   20.2600 C   0  0  0  0  0  0  0  0  0  0  0  0
   18.2800   10.5440   20.0210 C   0  0  0  0  0  0  0  0  0  0  0  0
   18.8920   11.7530   20.2590 C   0  0  0  0  0  0  0  0  0  0  0  0
   20.1950   11.7970   20.7440 C   0  0  0  0  0  0  0  0  0  0  0  0
   23.4880   10.6920   20.5300 C   0  0  0  0  0  0  0  0  0  0  0  0
   23.2110   10.7890   19.1730 C   0  0  0  0  0  0  0  0  0  0  0  0
   24.2350   10.8650   18.2430 C   0  0  0  0  0  0  0  0  0  0  0  0
   25.5500   10.8410   18.6560 C   0  0  0  0  0  0  0  0  0  0  0  0
   25.8710   10.7460   20.0070 C   0  0  0  0  0  0  0  0  0  0  0  0
   24.8260   10.6610   20.9430 C   0  0  0  0  0  0  0  0  0  0  0  0
    0.0000    0.0000    0.0000 H   0  0  0  0  0  0  0  0  0  0  0  0
    0.0000    0.0000    0.0000 H   0  0  0  0  0  0  0  0  0  0  0  0
    0.0000    0.0000    0.0000 H   0  0  0  0  0  0  0  0  0  0  0  0
    0.0000    0.0000    0.0000 H   0  0  0  0  0  0  0  0  0  0  0  0
    0.0000    0.0000    0.0000 H   0  0  0  0  0  0  0  0  0  0  0  0
    0.0000    0.0000    0.0000 H   0  0  0  0  0  0  0  0  0  0  0  0
    0.0000    0.0000    0.0000 H   0  0  0  0  0  0  0  0  0  0  0  0
    0.0000    0.0000    0.0000 H   0  0  0  0  0  0  0  0  0  0  0  0
    0.0000    0.0000    0.0000 H   0  0  0  0  0  0  0  0  0  0  0  0
    0.0000    0.0000    0.0000 H   0  0  0  0  0  0  0  0  0  0  0  0
    0.0000    0.0000    0.0000 H   0  0  0  0  0  0  0  0  0  0  0  0
    0.0000    0.0000    0.0000 H   0  0  0  0  0  0  0  0  0  0  0  0
    0.0000    0.0000    0.0000 H   0  0  0  0  0  0  0  0  0  0  0  0
    0.0000    0.0000    0.0000 H   0  0  0  0  0  0  0  0  0  0  0  0
   12.4388    5.2778    9.0825 C   0  0  0  0  0  0  0  0  0  0  0  0
   12.5686    4.5887    8.0070 N   0  0  0  0  0  0  0  0  0  0  0  0
   11.2740    4.2829    7.4455 C   0  0  0  0  0  0  0  0  0  0  0  0
   10.3668    5.2795    8.1276 C   0  0  0  0  0  0  0  0  0  0  0  0
   11.0733    5.5172    9.3677 N   0  0  0  0  0  0  0  0  0  0  0  0
   11.2429    4.3636    6.3433 H   0  0  0  0  0  0  0  0  0  0  0  0
   10.9895    3.2765    7.8143 H   0  0  0  0  0  0  0  0  0  0  0  0
   10.3338    6.2600    7.5945 H   0  0  0  0  0  0  0  0  0  0  0  0
    9.3453    4.8644    8.2914 H   0  0  0  0  0  0  0  0  0  0  0  0
   10.7059    5.8014   10.2882 H   0  0  0  0  0  0  0  0  0  0  0  0
  1  3  2  0
  1  4  1  0
  1  5  1  0
  2  4  1  0
  2  6  1  0
  4  9  1  0
  4 15  1  0
  5  6  1  0
  5  8  1  0
  6  7  2  3
  9 10  2  0
  9 14  1  0
 10 11  1  0
 11 12  2  0
 12 13  1  0
 13 14  2  0
 15 16  2  0
 15 20  1  0
 16 17  1  0
 17 18  2  0
 18 19  1  0
 19 20  2  0
  2 21  1  0
  7 22  1  0
  8 23  1  0
  8 24  1  0
  8 25  1  0
 10 26  1  0
 11 27  1  0
 12 28  1  0
 13 29  1  0
 14 30  1  0
 16 31  1  0
 17 32  1  0
 19 33  1  0
 20 34  1  0
 35 36  2  0
 36 37  1  0
 37 38  1  0
 38 39  1  0
 39 35  1  0
 37 40  1  0
 37 41  1  0
 38 42  1  0
 38 43  1  0
 39 44  1  0
 18 35  1  0
M  END
>  <attachment_point>  (376) 
32

>  <score>  (376) 
<NA>

$$$$
4djw
     RDKit          3D

 47 49  0  0  0  0  0  0  0  0999 V2000
   22.4950   11.8750   22.5810 C   0  0  0  0  0  0  0  0  0  0  0  0
   22.5380    9.4930   22.4640 N   0  0  0  0  0  0  0  0  0  0  0  0
   22.3600   13.0630   22.3480 O   0  0  0  0  0  0  0  0  0  0  0  0
   22.3390   10.6680   21.5610 C   0  0  0  0  0  0  0  0  0  0  0  0
   22.7860   11.3350   23.8120 N   0  0  0  0  0  0  0  0  0  0  0  0
   22.7800    9.9140   23.7010 C   0  0  0  0  0  0  0  0  0  0  0  0
   22.9970    9.1110   24.7490 N   0  0  0  0  0  0  0  0  0  0  0  0
   23.0220   12.1410   25.0180 C   0  0  0  0  0  0  0  0  0  0  0  0
   20.9020   10.6270   21.0050 C   0  0  0  0  0  0  0  0  0  0  0  0
   20.2720    9.4140   20.7470 C   0  0  0  0  0  0  0  0  0  0  0  0
   18.9690    9.3760   20.2600 C   0  0  0  0  0  0  0  0  0  0  0  0
   18.2800   10.5440   20.0210 C   0  0  0  0  0  0  0  0  0  0  0  0
   18.8920   11.7530   20.2590 C   0  0  0  0  0  0  0  0  0  0  0  0
   20.1950   11.7970   20.7440 C   0  0  0  0  0  0  0  0  0  0  0  0
   23.4880   10.6920   20.5300 C   0  0  0  0  0  0  0  0  0  0  0  0
   23.2110   10.7890   19.1730 C   0  0  0  0  0  0  0  0  0  0  0  0
   24.2350   10.8650   18.2430 C   0  0  0  0  0  0  0  0  0  0  0  0
   25.5500   10.8410   18.6560 C   0  0  0  0  0  0  0  0  0  0  0  0
   25.8710   10.7460   20.0070 C   0  0  0  0  0  0  0  0  0  0  0  0
   24.8260   10.6610   20.9430 C   0  0  0  0  0  0  0  0  0  0  0  0
    0.0000    0.0000    0.0000 H   0  0  0  0  0  0  0  0  0  0  0  0
    0.0000    0.0000    0.0000 H   0  0  0  0  0  0  0  0  0  0  0  0
    0.0000    0.0000    0.0000 H   0  0  0  0  0  0  0  0  0  0  0  0
    0.0000    0.0000    0.0000 H   0  0  0  0  0  0  0  0  0  0  0  0
    0.0000    0.0000    0.0000 H   0  0  0  0  0  0  0  0  0  0  0  0
    0.0000    0.0000    0.0000 H   0  0  0  0  0  0  0  0  0  0  0  0
    0.0000    0.0000    0.0000 H   0  0  0  0  0  0  0  0  0  0  0  0
    0.0000    0.0000    0.0000 H   0  0  0  0  0  0  0  0  0  0  0  0
    0.0000    0.0000    0.0000 H   0  0  0  0  0  0  0  0  0  0  0  0
    0.0000    0.0000    0.0000 H   0  0  0  0  0  0  0  0  0  0  0  0
    0.0000    0.0000    0.0000 H   0  0  0  0  0  0  0  0  0  0  0  0
    0.0000    0.0000    0.0000 H   0  0  0  0  0  0  0  0  0  0  0  0
    0.0000    0.0000    0.0000 H   0  0  0  0  0  0  0  0  0  0  0  0
    0.0000    0.0000    0.0000 H   0  0  0  0  0  0  0  0  0  0  0  0
   12.4512    5.2831    9.0916 N   0  0  0  0  0  0  0  0  0  0  0  0
   12.5957    5.9486    7.7893 C   0  0  0  0  0  0  0  0  0  0  0  0
   13.9357    5.5444    7.2043 C   0  0  0  0  0  0  0  0  0  0  0  0
   14.9921    6.0152    8.2046 C   0  0  0  0  0  0  0  0  0  0  0  0
   16.2718    5.7111    7.7977 O   0  0  0  0  0  0  0  0  0  0  0  0
   11.6166    5.6250    9.5894 H   0  0  0  0  0  0  0  0  0  0  0  0
   11.7488    5.7323    7.1460 H   0  0  0  0  0  0  0  0  0  0  0  0
   12.6339    7.0370    8.0220 H   0  0  0  0  0  0  0  0  0  0  0  0
   14.0914    6.0116    6.2268 H   0  0  0  0  0  0  0  0  0  0  0  0
   13.9124    4.4318    7.1459 H   0  0  0  0  0  0  0  0  0  0  0  0
   14.8525    7.1094    8.2975 H   0  0  0  0  0  0  0  0  0  0  0  0
   14.8281    5.5770    9.1983 H   0  0  0  0  0  0  0  0  0  0  0  0
   16.2991    4.9084    7.2222 H   0  0  0  0  0  0  0  0  0  0  0  0
  1  3  2  0
  1  4  1  0
  1  5  1  0
  2  4  1  0
  2  6  1  0
  4  9  1  0
  4 15  1  0
  5  6  1  0
  5  8  1  0
  6  7  2  3
  9 10  2  0
  9 14  1  0
 10 11  1  0
 11 12  2  0
 12 13  1  0
 13 14  2  0
 15 16  2  0
 15 20  1  0
 16 17  1  0
 17 18  2  0
 18 19  1  0
 19 20  2  0
  2 21  1  0
  7 22  1  0
  8 23  1  0
  8 24  1  0
  8 25  1  0
 10 26  1  0
 11 27  1  0
 12 28  1  0
 13 29  1  0
 14 30  1  0
 16 31  1  0
 17 32  1  0
 19 33  1  0
 20 34  1  0
 35 36  1  0
 36 37  1  0
 37 38  1  0
 38 39  1  0
 35 40  1  0
 36 41  1  0
 36 42  1  0
 37 43  1  0
 37 44  1  0
 38 45  1  0
 38 46  1  0
 39 47  1  0
 18 35  1  0
M  END
>  <attachment_point>  (377) 
32

>  <score>  (377) 
<NA>

$$$$
4djw
     RDKit          3D

 40 42  0  0  0  0  0  0  0  0999 V2000
   22.4950   11.8750   22.5810 C   0  0  0  0  0  0  0  0  0  0  0  0
   22.5380    9.4930   22.4640 N   0  0  0  0  0  0  0  0  0  0  0  0
   22.3600   13.0630   22.3480 O   0  0  0  0  0  0  0  0  0  0  0  0
   22.3390   10.6680   21.5610 C   0  0  0  0  0  0  0  0  0  0  0  0
   22.7860   11.3350   23.8120 N   0  0  0  0  0  0  0  0  0  0  0  0
   22.7800    9.9140   23.7010 C   0  0  0  0  0  0  0  0  0  0  0  0
   22.9970    9.1110   24.7490 N   0  0  0  0  0  0  0  0  0  0  0  0
   23.0220   12.1410   25.0180 C   0  0  0  0  0  0  0  0  0  0  0  0
   20.9020   10.6270   21.0050 C   0  0  0  0  0  0  0  0  0  0  0  0
   20.2720    9.4140   20.7470 C   0  0  0  0  0  0  0  0  0  0  0  0
   18.9690    9.3760   20.2600 C   0  0  0  0  0  0  0  0  0  0  0  0
   18.2800   10.5440   20.0210 C   0  0  0  0  0  0  0  0  0  0  0  0
   18.8920   11.7530   20.2590 C   0  0  0  0  0  0  0  0  0  0  0  0
   20.1950   11.7970   20.7440 C   0  0  0  0  0  0  0  0  0  0  0  0
   23.4880   10.6920   20.5300 C   0  0  0  0  0  0  0  0  0  0  0  0
   23.2110   10.7890   19.1730 C   0  0  0  0  0  0  0  0  0  0  0  0
   24.2350   10.8650   18.2430 C   0  0  0  0  0  0  0  0  0  0  0  0
   25.5500   10.8410   18.6560 C   0  0  0  0  0  0  0  0  0  0  0  0
   25.8710   10.7460   20.0070 C   0  0  0  0  0  0  0  0  0  0  0  0
   24.8260   10.6610   20.9430 C   0  0  0  0  0  0  0  0  0  0  0  0
    0.0000    0.0000    0.0000 H   0  0  0  0  0  0  0  0  0  0  0  0
    0.0000    0.0000    0.0000 H   0  0  0  0  0  0  0  0  0  0  0  0
    0.0000    0.0000    0.0000 H   0  0  0  0  0  0  0  0  0  0  0  0
    0.0000    0.0000    0.0000 H   0  0  0  0  0  0  0  0  0  0  0  0
    0.0000    0.0000    0.0000 H   0  0  0  0  0  0  0  0  0  0  0  0
    0.0000    0.0000    0.0000 H   0  0  0  0  0  0  0  0  0  0  0  0
    0.0000    0.0000    0.0000 H   0  0  0  0  0  0  0  0  0  0  0  0
    0.0000    0.0000    0.0000 H   0  0  0  0  0  0  0  0  0  0  0  0
    0.0000    0.0000    0.0000 H   0  0  0  0  0  0  0  0  0  0  0  0
    0.0000    0.0000    0.0000 H   0  0  0  0  0  0  0  0  0  0  0  0
    0.0000    0.0000    0.0000 H   0  0  0  0  0  0  0  0  0  0  0  0
    0.0000    0.0000    0.0000 H   0  0  0  0  0  0  0  0  0  0  0  0
    0.0000    0.0000    0.0000 H   0  0  0  0  0  0  0  0  0  0  0  0
    0.0000    0.0000    0.0000 H   0  0  0  0  0  0  0  0  0  0  0  0
   12.4472    5.2814    9.0887 C   0  0  0  0  0  0  0  0  0  0  0  0
   11.2899    5.2684    9.4275 O   0  0  0  0  0  0  0  0  0  0  0  0
   12.7782    4.7780    7.7360 C   0  0  0  0  0  0  0  0  0  0  0  0
   13.6419    3.7104    7.8076 F   0  0  0  0  0  0  0  0  0  0  0  0
   13.3682    5.8186    7.0318 F   0  0  0  0  0  0  0  0  0  0  0  0
   11.6727    4.3826    7.0439 F   0  0  0  0  0  0  0  0  0  0  0  0
  1  3  2  0
  1  4  1  0
  1  5  1  0
  2  4  1  0
  2  6  1  0
  4  9  1  0
  4 15  1  0
  5  6  1  0
  5  8  1  0
  6  7  2  3
  9 10  2  0
  9 14  1  0
 10 11  1  0
 11 12  2  0
 12 13  1  0
 13 14  2  0
 15 16  2  0
 15 20  1  0
 16 17  1  0
 17 18  2  0
 18 19  1  0
 19 20  2  0
  2 21  1  0
  7 22  1  0
  8 23  1  0
  8 24  1  0
  8 25  1  0
 10 26  1  0
 11 27  1  0
 12 28  1  0
 13 29  1  0
 14 30  1  0
 16 31  1  0
 17 32  1  0
 19 33  1  0
 20 34  1  0
 35 36  2  0
 35 37  1  0
 37 38  1  0
 37 39  1  0
 37 40  1  0
 18 35  1  0
M  END
>  <attachment_point>  (378) 
32

>  <score>  (378) 
<NA>

$$$$
4djw
     RDKit          3D

 50 54  0  0  0  0  0  0  0  0999 V2000
   22.4950   11.8750   22.5810 C   0  0  0  0  0  0  0  0  0  0  0  0
   22.5380    9.4930   22.4640 N   0  0  0  0  0  0  0  0  0  0  0  0
   22.3600   13.0630   22.3480 O   0  0  0  0  0  0  0  0  0  0  0  0
   22.3390   10.6680   21.5610 C   0  0  0  0  0  0  0  0  0  0  0  0
   22.7860   11.3350   23.8120 N   0  0  0  0  0  0  0  0  0  0  0  0
   22.7800    9.9140   23.7010 C   0  0  0  0  0  0  0  0  0  0  0  0
   22.9970    9.1110   24.7490 N   0  0  0  0  0  0  0  0  0  0  0  0
   23.0220   12.1410   25.0180 C   0  0  0  0  0  0  0  0  0  0  0  0
   20.9020   10.6270   21.0050 C   0  0  0  0  0  0  0  0  0  0  0  0
   20.2720    9.4140   20.7470 C   0  0  0  0  0  0  0  0  0  0  0  0
   18.9690    9.3760   20.2600 C   0  0  0  0  0  0  0  0  0  0  0  0
   18.2800   10.5440   20.0210 C   0  0  0  0  0  0  0  0  0  0  0  0
   18.8920   11.7530   20.2590 C   0  0  0  0  0  0  0  0  0  0  0  0
   20.1950   11.7970   20.7440 C   0  0  0  0  0  0  0  0  0  0  0  0
   23.4880   10.6920   20.5300 C   0  0  0  0  0  0  0  0  0  0  0  0
   23.2110   10.7890   19.1730 C   0  0  0  0  0  0  0  0  0  0  0  0
   24.2350   10.8650   18.2430 C   0  0  0  0  0  0  0  0  0  0  0  0
   25.5500   10.8410   18.6560 C   0  0  0  0  0  0  0  0  0  0  0  0
   25.8710   10.7460   20.0070 C   0  0  0  0  0  0  0  0  0  0  0  0
   24.8260   10.6610   20.9430 C   0  0  0  0  0  0  0  0  0  0  0  0
    0.0000    0.0000    0.0000 H   0  0  0  0  0  0  0  0  0  0  0  0
    0.0000    0.0000    0.0000 H   0  0  0  0  0  0  0  0  0  0  0  0
    0.0000    0.0000    0.0000 H   0  0  0  0  0  0  0  0  0  0  0  0
    0.0000    0.0000    0.0000 H   0  0  0  0  0  0  0  0  0  0  0  0
    0.0000    0.0000    0.0000 H   0  0  0  0  0  0  0  0  0  0  0  0
    0.0000    0.0000    0.0000 H   0  0  0  0  0  0  0  0  0  0  0  0
    0.0000    0.0000    0.0000 H   0  0  0  0  0  0  0  0  0  0  0  0
    0.0000    0.0000    0.0000 H   0  0  0  0  0  0  0  0  0  0  0  0
    0.0000    0.0000    0.0000 H   0  0  0  0  0  0  0  0  0  0  0  0
    0.0000    0.0000    0.0000 H   0  0  0  0  0  0  0  0  0  0  0  0
    0.0000    0.0000    0.0000 H   0  0  0  0  0  0  0  0  0  0  0  0
    0.0000    0.0000    0.0000 H   0  0  0  0  0  0  0  0  0  0  0  0
    0.0000    0.0000    0.0000 H   0  0  0  0  0  0  0  0  0  0  0  0
    0.0000    0.0000    0.0000 H   0  0  0  0  0  0  0  0  0  0  0  0
   12.4641    5.2886    9.1010 C   0  0  0  0  0  0  0  0  0  0  0  0
   12.0857    3.9603    9.1048 C   0  0  0  0  0  0  0  0  0  0  0  0
   11.0215    3.5875    8.3090 C   0  0  0  0  0  0  0  0  0  0  0  0
   10.3479    4.5069    7.5283 C   0  0  0  0  0  0  0  0  0  0  0  0
    9.3097    4.1562    6.7487 N   0  0  0  0  0  0  0  0  0  0  0  0
    8.6354    5.0356    5.9768 C   0  0  0  0  0  0  0  0  0  0  0  0
    8.9766    6.3877    5.9363 C   0  0  0  0  0  0  0  0  0  0  0  0
   10.0406    6.7586    6.7324 C   0  0  0  0  0  0  0  0  0  0  0  0
   10.7161    5.8398    7.5148 C   0  0  0  0  0  0  0  0  0  0  0  0
   11.7821    6.2011    8.3149 C   0  0  0  0  0  0  0  0  0  0  0  0
   12.6083    3.2208    9.7170 H   0  0  0  0  0  0  0  0  0  0  0  0
   10.7283    2.5408    8.3162 H   0  0  0  0  0  0  0  0  0  0  0  0
    7.8185    4.7121    5.3748 H   0  0  0  0  0  0  0  0  0  0  0  0
    8.4373    7.0935    5.3183 H   0  0  0  0  0  0  0  0  0  0  0  0
   10.3276    7.8004    6.7213 H   0  0  0  0  0  0  0  0  0  0  0  0
   12.0620    7.2534    8.2953 H   0  0  0  0  0  0  0  0  0  0  0  0
  1  3  2  0
  1  4  1  0
  1  5  1  0
  2  4  1  0
  2  6  1  0
  4  9  1  0
  4 15  1  0
  5  6  1  0
  5  8  1  0
  6  7  2  3
  9 10  2  0
  9 14  1  0
 10 11  1  0
 11 12  2  0
 12 13  1  0
 13 14  2  0
 15 16  2  0
 15 20  1  0
 16 17  1  0
 17 18  2  0
 18 19  1  0
 19 20  2  0
  2 21  1  0
  7 22  1  0
  8 23  1  0
  8 24  1  0
  8 25  1  0
 10 26  1  0
 11 27  1  0
 12 28  1  0
 13 29  1  0
 14 30  1  0
 16 31  1  0
 17 32  1  0
 19 33  1  0
 20 34  1  0
 35 36  2  0
 36 37  1  0
 37 38  2  0
 38 39  1  0
 39 40  2  0
 40 41  1  0
 41 42  2  0
 42 43  1  0
 43 44  2  0
 44 35  1  0
 43 38  1  0
 36 45  1  0
 37 46  1  0
 40 47  1  0
 41 48  1  0
 42 49  1  0
 44 50  1  0
 18 35  1  0
M  END
>  <attachment_point>  (379) 
32

>  <score>  (379) 
<NA>

$$$$
4djw
     RDKit          3D

 47 50  0  0  0  0  0  0  0  0999 V2000
   22.4950   11.8750   22.5810 C   0  0  0  0  0  0  0  0  0  0  0  0
   22.5380    9.4930   22.4640 N   0  0  0  0  0  0  0  0  0  0  0  0
   22.3600   13.0630   22.3480 O   0  0  0  0  0  0  0  0  0  0  0  0
   22.3390   10.6680   21.5610 C   0  0  0  0  0  0  0  0  0  0  0  0
   22.7860   11.3350   23.8120 N   0  0  0  0  0  0  0  0  0  0  0  0
   22.7800    9.9140   23.7010 C   0  0  0  0  0  0  0  0  0  0  0  0
   22.9970    9.1110   24.7490 N   0  0  0  0  0  0  0  0  0  0  0  0
   23.0220   12.1410   25.0180 C   0  0  0  0  0  0  0  0  0  0  0  0
   20.9020   10.6270   21.0050 C   0  0  0  0  0  0  0  0  0  0  0  0
   20.2720    9.4140   20.7470 C   0  0  0  0  0  0  0  0  0  0  0  0
   18.9690    9.3760   20.2600 C   0  0  0  0  0  0  0  0  0  0  0  0
   18.2800   10.5440   20.0210 C   0  0  0  0  0  0  0  0  0  0  0  0
   18.8920   11.7530   20.2590 C   0  0  0  0  0  0  0  0  0  0  0  0
   20.1950   11.7970   20.7440 C   0  0  0  0  0  0  0  0  0  0  0  0
   23.4880   10.6920   20.5300 C   0  0  0  0  0  0  0  0  0  0  0  0
   23.2110   10.7890   19.1730 C   0  0  0  0  0  0  0  0  0  0  0  0
   24.2350   10.8650   18.2430 C   0  0  0  0  0  0  0  0  0  0  0  0
   25.5500   10.8410   18.6560 C   0  0  0  0  0  0  0  0  0  0  0  0
   25.8710   10.7460   20.0070 C   0  0  0  0  0  0  0  0  0  0  0  0
   24.8260   10.6610   20.9430 C   0  0  0  0  0  0  0  0  0  0  0  0
    0.0000    0.0000    0.0000 H   0  0  0  0  0  0  0  0  0  0  0  0
    0.0000    0.0000    0.0000 H   0  0  0  0  0  0  0  0  0  0  0  0
    0.0000    0.0000    0.0000 H   0  0  0  0  0  0  0  0  0  0  0  0
    0.0000    0.0000    0.0000 H   0  0  0  0  0  0  0  0  0  0  0  0
    0.0000    0.0000    0.0000 H   0  0  0  0  0  0  0  0  0  0  0  0
    0.0000    0.0000    0.0000 H   0  0  0  0  0  0  0  0  0  0  0  0
    0.0000    0.0000    0.0000 H   0  0  0  0  0  0  0  0  0  0  0  0
    0.0000    0.0000    0.0000 H   0  0  0  0  0  0  0  0  0  0  0  0
    0.0000    0.0000    0.0000 H   0  0  0  0  0  0  0  0  0  0  0  0
    0.0000    0.0000    0.0000 H   0  0  0  0  0  0  0  0  0  0  0  0
    0.0000    0.0000    0.0000 H   0  0  0  0  0  0  0  0  0  0  0  0
    0.0000    0.0000    0.0000 H   0  0  0  0  0  0  0  0  0  0  0  0
    0.0000    0.0000    0.0000 H   0  0  0  0  0  0  0  0  0  0  0  0
    0.0000    0.0000    0.0000 H   0  0  0  0  0  0  0  0  0  0  0  0
   12.4381    5.2775    9.0820 C   0  0  1  0  0  0  0  0  0  0  0  0
   12.3613    6.2954    7.9415 C   0  0  0  0  0  0  0  0  0  0  0  0
   13.5681    5.8215    7.1240 C   0  0  0  0  0  0  0  0  0  0  0  0
   13.3343    4.3075    7.1652 C   0  0  0  0  0  0  0  0  0  0  0  0
   12.8543    4.0396    8.5056 N   0  0  0  0  0  0  0  0  0  0  0  0
   11.5082    5.2295    9.6589 H   0  0  0  0  0  0  0  0  0  0  0  0
   11.4557    6.0995    7.3199 H   0  0  0  0  0  0  0  0  0  0  0  0
   12.4592    7.3218    8.2818 H   0  0  0  0  0  0  0  0  0  0  0  0
   13.5801    6.2212    6.1180 H   0  0  0  0  0  0  0  0  0  0  0  0
   14.4606    6.0066    7.7328 H   0  0  0  0  0  0  0  0  0  0  0  0
   12.4933    4.1179    6.4778 H   0  0  0  0  0  0  0  0  0  0  0  0
   14.2509    3.7490    6.9266 H   0  0  0  0  0  0  0  0  0  0  0  0
   13.6239    3.5748    9.0669 H   0  0  0  0  0  0  0  0  0  0  0  0
  1  3  2  0
  1  4  1  0
  1  5  1  0
  2  4  1  0
  2  6  1  0
  4  9  1  0
  4 15  1  0
  5  6  1  0
  5  8  1  0
  6  7  2  3
  9 10  2  0
  9 14  1  0
 10 11  1  0
 11 12  2  0
 12 13  1  0
 13 14  2  0
 15 16  2  0
 15 20  1  0
 16 17  1  0
 17 18  2  0
 18 19  1  0
 19 20  2  0
  2 21  1  0
  7 22  1  0
  8 23  1  0
  8 24  1  0
  8 25  1  0
 10 26  1  0
 11 27  1  0
 12 28  1  0
 13 29  1  0
 14 30  1  0
 16 31  1  0
 17 32  1  0
 19 33  1  0
 20 34  1  0
 35 36  1  0
 36 37  1  0
 37 38  1  0
 38 39  1  0
 39 35  1  0
 35 40  1  6
 36 41  1  0
 36 42  1  0
 37 43  1  0
 37 44  1  0
 38 45  1  0
 38 46  1  0
 39 47  1  0
 18 35  1  0
M  END
>  <attachment_point>  (380) 
32

>  <score>  (380) 
<NA>

$$$$
4djw
     RDKit          3D

 49 52  0  0  0  0  0  0  0  0999 V2000
   22.4950   11.8750   22.5810 C   0  0  0  0  0  0  0  0  0  0  0  0
   22.5380    9.4930   22.4640 N   0  0  0  0  0  0  0  0  0  0  0  0
   22.3600   13.0630   22.3480 O   0  0  0  0  0  0  0  0  0  0  0  0
   22.3390   10.6680   21.5610 C   0  0  0  0  0  0  0  0  0  0  0  0
   22.7860   11.3350   23.8120 N   0  0  0  0  0  0  0  0  0  0  0  0
   22.7800    9.9140   23.7010 C   0  0  0  0  0  0  0  0  0  0  0  0
   22.9970    9.1110   24.7490 N   0  0  0  0  0  0  0  0  0  0  0  0
   23.0220   12.1410   25.0180 C   0  0  0  0  0  0  0  0  0  0  0  0
   20.9020   10.6270   21.0050 C   0  0  0  0  0  0  0  0  0  0  0  0
   20.2720    9.4140   20.7470 C   0  0  0  0  0  0  0  0  0  0  0  0
   18.9690    9.3760   20.2600 C   0  0  0  0  0  0  0  0  0  0  0  0
   18.2800   10.5440   20.0210 C   0  0  0  0  0  0  0  0  0  0  0  0
   18.8920   11.7530   20.2590 C   0  0  0  0  0  0  0  0  0  0  0  0
   20.1950   11.7970   20.7440 C   0  0  0  0  0  0  0  0  0  0  0  0
   23.4880   10.6920   20.5300 C   0  0  0  0  0  0  0  0  0  0  0  0
   23.2110   10.7890   19.1730 C   0  0  0  0  0  0  0  0  0  0  0  0
   24.2350   10.8650   18.2430 C   0  0  0  0  0  0  0  0  0  0  0  0
   25.5500   10.8410   18.6560 C   0  0  0  0  0  0  0  0  0  0  0  0
   25.8710   10.7460   20.0070 C   0  0  0  0  0  0  0  0  0  0  0  0
   24.8260   10.6610   20.9430 C   0  0  0  0  0  0  0  0  0  0  0  0
    0.0000    0.0000    0.0000 H   0  0  0  0  0  0  0  0  0  0  0  0
    0.0000    0.0000    0.0000 H   0  0  0  0  0  0  0  0  0  0  0  0
    0.0000    0.0000    0.0000 H   0  0  0  0  0  0  0  0  0  0  0  0
    0.0000    0.0000    0.0000 H   0  0  0  0  0  0  0  0  0  0  0  0
    0.0000    0.0000    0.0000 H   0  0  0  0  0  0  0  0  0  0  0  0
    0.0000    0.0000    0.0000 H   0  0  0  0  0  0  0  0  0  0  0  0
    0.0000    0.0000    0.0000 H   0  0  0  0  0  0  0  0  0  0  0  0
    0.0000    0.0000    0.0000 H   0  0  0  0  0  0  0  0  0  0  0  0
    0.0000    0.0000    0.0000 H   0  0  0  0  0  0  0  0  0  0  0  0
    0.0000    0.0000    0.0000 H   0  0  0  0  0  0  0  0  0  0  0  0
    0.0000    0.0000    0.0000 H   0  0  0  0  0  0  0  0  0  0  0  0
    0.0000    0.0000    0.0000 H   0  0  0  0  0  0  0  0  0  0  0  0
    0.0000    0.0000    0.0000 H   0  0  0  0  0  0  0  0  0  0  0  0
    0.0000    0.0000    0.0000 H   0  0  0  0  0  0  0  0  0  0  0  0
   12.3300    5.2317    9.0031 S   0  0  0  0  0  0  0  0  0  0  0  0
   12.8471    6.1270    7.5130 C   0  0  0  0  0  0  0  0  0  0  0  0
   14.1328    5.5824    7.0008 C   0  0  0  0  0  0  0  0  0  0  0  0
   14.1098    4.5342    6.0752 C   0  0  0  0  0  0  0  0  0  0  0  0
   15.2941    4.0155    5.5885 C   0  0  0  0  0  0  0  0  0  0  0  0
   16.5262    4.4929    5.9811 C   0  0  0  0  0  0  0  0  0  0  0  0
   16.5430    5.5255    6.8930 C   0  0  0  0  0  0  0  0  0  0  0  0
   15.3623    6.0652    7.3981 C   0  0  0  0  0  0  0  0  0  0  0  0
   12.9439    7.1986    7.7609 H   0  0  0  0  0  0  0  0  0  0  0  0
   12.0882    5.9333    6.7482 H   0  0  0  0  0  0  0  0  0  0  0  0
   13.1346    4.1695    5.7762 H   0  0  0  0  0  0  0  0  0  0  0  0
   15.2344    3.2062    4.8752 H   0  0  0  0  0  0  0  0  0  0  0  0
   17.4704    4.1113    5.6208 H   0  0  0  0  0  0  0  0  0  0  0  0
   17.4546    5.9794    7.2722 H   0  0  0  0  0  0  0  0  0  0  0  0
   15.3590    6.8763    8.1156 H   0  0  0  0  0  0  0  0  0  0  0  0
  1  3  2  0
  1  4  1  0
  1  5  1  0
  2  4  1  0
  2  6  1  0
  4  9  1  0
  4 15  1  0
  5  6  1  0
  5  8  1  0
  6  7  2  3
  9 10  2  0
  9 14  1  0
 10 11  1  0
 11 12  2  0
 12 13  1  0
 13 14  2  0
 15 16  2  0
 15 20  1  0
 16 17  1  0
 17 18  2  0
 18 19  1  0
 19 20  2  0
  2 21  1  0
  7 22  1  0
  8 23  1  0
  8 24  1  0
  8 25  1  0
 10 26  1  0
 11 27  1  0
 12 28  1  0
 13 29  1  0
 14 30  1  0
 16 31  1  0
 17 32  1  0
 19 33  1  0
 20 34  1  0
 35 36  1  0
 36 37  1  0
 37 38  2  0
 38 39  1  0
 39 40  2  0
 40 41  1  0
 41 42  2  0
 42 37  1  0
 36 43  1  0
 36 44  1  0
 38 45  1  0
 39 46  1  0
 40 47  1  0
 41 48  1  0
 42 49  1  0
 18 35  1  0
M  END
>  <attachment_point>  (381) 
32

>  <score>  (381) 
<NA>

$$$$
4djw
     RDKit          3D

 48 50  0  0  0  0  0  0  0  0999 V2000
   22.4950   11.8750   22.5810 C   0  0  0  0  0  0  0  0  0  0  0  0
   22.5380    9.4930   22.4640 N   0  0  0  0  0  0  0  0  0  0  0  0
   22.3600   13.0630   22.3480 O   0  0  0  0  0  0  0  0  0  0  0  0
   22.3390   10.6680   21.5610 C   0  0  0  0  0  0  0  0  0  0  0  0
   22.7860   11.3350   23.8120 N   0  0  0  0  0  0  0  0  0  0  0  0
   22.7800    9.9140   23.7010 C   0  0  0  0  0  0  0  0  0  0  0  0
   22.9970    9.1110   24.7490 N   0  0  0  0  0  0  0  0  0  0  0  0
   23.0220   12.1410   25.0180 C   0  0  0  0  0  0  0  0  0  0  0  0
   20.9020   10.6270   21.0050 C   0  0  0  0  0  0  0  0  0  0  0  0
   20.2720    9.4140   20.7470 C   0  0  0  0  0  0  0  0  0  0  0  0
   18.9690    9.3760   20.2600 C   0  0  0  0  0  0  0  0  0  0  0  0
   18.2800   10.5440   20.0210 C   0  0  0  0  0  0  0  0  0  0  0  0
   18.8920   11.7530   20.2590 C   0  0  0  0  0  0  0  0  0  0  0  0
   20.1950   11.7970   20.7440 C   0  0  0  0  0  0  0  0  0  0  0  0
   23.4880   10.6920   20.5300 C   0  0  0  0  0  0  0  0  0  0  0  0
   23.2110   10.7890   19.1730 C   0  0  0  0  0  0  0  0  0  0  0  0
   24.2350   10.8650   18.2430 C   0  0  0  0  0  0  0  0  0  0  0  0
   25.5500   10.8410   18.6560 C   0  0  0  0  0  0  0  0  0  0  0  0
   25.8710   10.7460   20.0070 C   0  0  0  0  0  0  0  0  0  0  0  0
   24.8260   10.6610   20.9430 C   0  0  0  0  0  0  0  0  0  0  0  0
    0.0000    0.0000    0.0000 H   0  0  0  0  0  0  0  0  0  0  0  0
    0.0000    0.0000    0.0000 H   0  0  0  0  0  0  0  0  0  0  0  0
    0.0000    0.0000    0.0000 H   0  0  0  0  0  0  0  0  0  0  0  0
    0.0000    0.0000    0.0000 H   0  0  0  0  0  0  0  0  0  0  0  0
    0.0000    0.0000    0.0000 H   0  0  0  0  0  0  0  0  0  0  0  0
    0.0000    0.0000    0.0000 H   0  0  0  0  0  0  0  0  0  0  0  0
    0.0000    0.0000    0.0000 H   0  0  0  0  0  0  0  0  0  0  0  0
    0.0000    0.0000    0.0000 H   0  0  0  0  0  0  0  0  0  0  0  0
    0.0000    0.0000    0.0000 H   0  0  0  0  0  0  0  0  0  0  0  0
    0.0000    0.0000    0.0000 H   0  0  0  0  0  0  0  0  0  0  0  0
    0.0000    0.0000    0.0000 H   0  0  0  0  0  0  0  0  0  0  0  0
    0.0000    0.0000    0.0000 H   0  0  0  0  0  0  0  0  0  0  0  0
    0.0000    0.0000    0.0000 H   0  0  0  0  0  0  0  0  0  0  0  0
    0.0000    0.0000    0.0000 H   0  0  0  0  0  0  0  0  0  0  0  0
   12.4202    5.2699    9.0689 C   0  0  0  0  0  0  0  0  0  0  0  0
   13.0393    4.0836    8.3698 C   0  0  0  0  0  0  0  0  0  0  0  0
   14.1786    4.4637    7.5714 N   0  0  0  0  0  0  0  0  0  0  0  0
   14.9494    3.5811    6.8140 C   0  0  0  0  0  0  0  0  0  0  0  0
   16.1042    4.0404    6.0190 C   0  0  0  0  0  0  0  0  0  0  0  0
   14.6396    2.3552    6.8172 O   0  0  0  0  0  0  0  0  0  0  0  0
   12.2014    6.1125    8.4182 H   0  0  0  0  0  0  0  0  0  0  0  0
   11.6545    4.9957    9.7918 H   0  0  0  0  0  0  0  0  0  0  0  0
   13.4101    3.3955    9.1568 H   0  0  0  0  0  0  0  0  0  0  0  0
   12.2911    3.5583    7.7478 H   0  0  0  0  0  0  0  0  0  0  0  0
   14.4449    5.4898    7.5635 H   0  0  0  0  0  0  0  0  0  0  0  0
   16.9806    3.3406    6.1106 H   0  0  0  0  0  0  0  0  0  0  0  0
   16.3676    5.0620    6.3556 H   0  0  0  0  0  0  0  0  0  0  0  0
   15.7695    4.1156    4.9599 H   0  0  0  0  0  0  0  0  0  0  0  0
  1  3  2  0
  1  4  1  0
  1  5  1  0
  2  4  1  0
  2  6  1  0
  4  9  1  0
  4 15  1  0
  5  6  1  0
  5  8  1  0
  6  7  2  3
  9 10  2  0
  9 14  1  0
 10 11  1  0
 11 12  2  0
 12 13  1  0
 13 14  2  0
 15 16  2  0
 15 20  1  0
 16 17  1  0
 17 18  2  0
 18 19  1  0
 19 20  2  0
  2 21  1  0
  7 22  1  0
  8 23  1  0
  8 24  1  0
  8 25  1  0
 10 26  1  0
 11 27  1  0
 12 28  1  0
 13 29  1  0
 14 30  1  0
 16 31  1  0
 17 32  1  0
 19 33  1  0
 20 34  1  0
 35 36  1  0
 36 37  1  0
 37 38  1  0
 38 39  1  0
 38 40  2  0
 35 41  1  0
 35 42  1  0
 36 43  1  0
 36 44  1  0
 37 45  1  0
 39 46  1  0
 39 47  1  0
 39 48  1  0
 18 35  1  0
M  END
>  <attachment_point>  (382) 
32

>  <score>  (382) 
<NA>

$$$$
4djw
     RDKit          3D

 50 53  0  0  0  0  0  0  0  0999 V2000
   22.4950   11.8750   22.5810 C   0  0  0  0  0  0  0  0  0  0  0  0
   22.5380    9.4930   22.4640 N   0  0  0  0  0  0  0  0  0  0  0  0
   22.3600   13.0630   22.3480 O   0  0  0  0  0  0  0  0  0  0  0  0
   22.3390   10.6680   21.5610 C   0  0  0  0  0  0  0  0  0  0  0  0
   22.7860   11.3350   23.8120 N   0  0  0  0  0  0  0  0  0  0  0  0
   22.7800    9.9140   23.7010 C   0  0  0  0  0  0  0  0  0  0  0  0
   22.9970    9.1110   24.7490 N   0  0  0  0  0  0  0  0  0  0  0  0
   23.0220   12.1410   25.0180 C   0  0  0  0  0  0  0  0  0  0  0  0
   20.9020   10.6270   21.0050 C   0  0  0  0  0  0  0  0  0  0  0  0
   20.2720    9.4140   20.7470 C   0  0  0  0  0  0  0  0  0  0  0  0
   18.9690    9.3760   20.2600 C   0  0  0  0  0  0  0  0  0  0  0  0
   18.2800   10.5440   20.0210 C   0  0  0  0  0  0  0  0  0  0  0  0
   18.8920   11.7530   20.2590 C   0  0  0  0  0  0  0  0  0  0  0  0
   20.1950   11.7970   20.7440 C   0  0  0  0  0  0  0  0  0  0  0  0
   23.4880   10.6920   20.5300 C   0  0  0  0  0  0  0  0  0  0  0  0
   23.2110   10.7890   19.1730 C   0  0  0  0  0  0  0  0  0  0  0  0
   24.2350   10.8650   18.2430 C   0  0  0  0  0  0  0  0  0  0  0  0
   25.5500   10.8410   18.6560 C   0  0  0  0  0  0  0  0  0  0  0  0
   25.8710   10.7460   20.0070 C   0  0  0  0  0  0  0  0  0  0  0  0
   24.8260   10.6610   20.9430 C   0  0  0  0  0  0  0  0  0  0  0  0
    0.0000    0.0000    0.0000 H   0  0  0  0  0  0  0  0  0  0  0  0
    0.0000    0.0000    0.0000 H   0  0  0  0  0  0  0  0  0  0  0  0
    0.0000    0.0000    0.0000 H   0  0  0  0  0  0  0  0  0  0  0  0
    0.0000    0.0000    0.0000 H   0  0  0  0  0  0  0  0  0  0  0  0
    0.0000    0.0000    0.0000 H   0  0  0  0  0  0  0  0  0  0  0  0
    0.0000    0.0000    0.0000 H   0  0  0  0  0  0  0  0  0  0  0  0
    0.0000    0.0000    0.0000 H   0  0  0  0  0  0  0  0  0  0  0  0
    0.0000    0.0000    0.0000 H   0  0  0  0  0  0  0  0  0  0  0  0
    0.0000    0.0000    0.0000 H   0  0  0  0  0  0  0  0  0  0  0  0
    0.0000    0.0000    0.0000 H   0  0  0  0  0  0  0  0  0  0  0  0
    0.0000    0.0000    0.0000 H   0  0  0  0  0  0  0  0  0  0  0  0
    0.0000    0.0000    0.0000 H   0  0  0  0  0  0  0  0  0  0  0  0
    0.0000    0.0000    0.0000 H   0  0  0  0  0  0  0  0  0  0  0  0
    0.0000    0.0000    0.0000 H   0  0  0  0  0  0  0  0  0  0  0  0
   12.4716    5.2918    9.1065 N   0  0  0  0  0  0  0  0  0  0  0  0
   12.6628    4.8090    7.7691 C   0  0  0  0  0  0  0  0  0  0  0  0
   11.1599    5.3110    9.6564 C   0  0  0  0  0  0  0  0  0  0  0  0
   10.0730    4.8750    8.9284 C   0  0  0  0  0  0  0  0  0  0  0  0
    8.7964    4.9013    9.4833 C   0  0  0  0  0  0  0  0  0  0  0  0
    8.5708    5.3580   10.7657 C   0  0  0  0  0  0  0  0  0  0  0  0
    9.6682    5.7898   11.4787 C   0  0  0  0  0  0  0  0  0  0  0  0
   10.9397    5.7697   10.9418 C   0  0  0  0  0  0  0  0  0  0  0  0
   12.6463    3.7033    7.7442 H   0  0  0  0  0  0  0  0  0  0  0  0
   13.6972    5.1133    7.4316 H   0  0  0  0  0  0  0  0  0  0  0  0
   11.9221    5.2646    7.0659 H   0  0  0  0  0  0  0  0  0  0  0  0
   10.2256    4.5094    7.9128 H   0  0  0  0  0  0  0  0  0  0  0  0
    7.9471    4.5583    8.9086 H   0  0  0  0  0  0  0  0  0  0  0  0
    7.5820    5.3867   11.2173 H   0  0  0  0  0  0  0  0  0  0  0  0
    9.4848    6.1509   12.4945 H   0  0  0  0  0  0  0  0  0  0  0  0
   11.8052    6.1131   11.5117 H   0  0  0  0  0  0  0  0  0  0  0  0
  1  3  2  0
  1  4  1  0
  1  5  1  0
  2  4  1  0
  2  6  1  0
  4  9  1  0
  4 15  1  0
  5  6  1  0
  5  8  1  0
  6  7  2  3
  9 10  2  0
  9 14  1  0
 10 11  1  0
 11 12  2  0
 12 13  1  0
 13 14  2  0
 15 16  2  0
 15 20  1  0
 16 17  1  0
 17 18  2  0
 18 19  1  0
 19 20  2  0
  2 21  1  0
  7 22  1  0
  8 23  1  0
  8 24  1  0
  8 25  1  0
 10 26  1  0
 11 27  1  0
 12 28  1  0
 13 29  1  0
 14 30  1  0
 16 31  1  0
 17 32  1  0
 19 33  1  0
 20 34  1  0
 35 36  1  0
 35 37  1  0
 37 38  2  0
 38 39  1  0
 39 40  2  0
 40 41  1  0
 41 42  2  0
 42 37  1  0
 36 43  1  0
 36 44  1  0
 36 45  1  0
 38 46  1  0
 39 47  1  0
 40 48  1  0
 41 49  1  0
 42 50  1  0
 18 35  1  0
M  END
>  <attachment_point>  (383) 
32

>  <score>  (383) 
<NA>

$$$$
4djw
     RDKit          3D

 39 41  0  0  0  0  0  0  0  0999 V2000
   22.4950   11.8750   22.5810 C   0  0  0  0  0  0  0  0  0  0  0  0
   22.5380    9.4930   22.4640 N   0  0  0  0  0  0  0  0  0  0  0  0
   22.3600   13.0630   22.3480 O   0  0  0  0  0  0  0  0  0  0  0  0
   22.3390   10.6680   21.5610 C   0  0  0  0  0  0  0  0  0  0  0  0
   22.7860   11.3350   23.8120 N   0  0  0  0  0  0  0  0  0  0  0  0
   22.7800    9.9140   23.7010 C   0  0  0  0  0  0  0  0  0  0  0  0
   22.9970    9.1110   24.7490 N   0  0  0  0  0  0  0  0  0  0  0  0
   23.0220   12.1410   25.0180 C   0  0  0  0  0  0  0  0  0  0  0  0
   20.9020   10.6270   21.0050 C   0  0  0  0  0  0  0  0  0  0  0  0
   20.2720    9.4140   20.7470 C   0  0  0  0  0  0  0  0  0  0  0  0
   18.9690    9.3760   20.2600 C   0  0  0  0  0  0  0  0  0  0  0  0
   18.2800   10.5440   20.0210 C   0  0  0  0  0  0  0  0  0  0  0  0
   18.8920   11.7530   20.2590 C   0  0  0  0  0  0  0  0  0  0  0  0
   20.1950   11.7970   20.7440 C   0  0  0  0  0  0  0  0  0  0  0  0
   23.4880   10.6920   20.5300 C   0  0  0  0  0  0  0  0  0  0  0  0
   23.2110   10.7890   19.1730 C   0  0  0  0  0  0  0  0  0  0  0  0
   24.2350   10.8650   18.2430 C   0  0  0  0  0  0  0  0  0  0  0  0
   25.5500   10.8410   18.6560 C   0  0  0  0  0  0  0  0  0  0  0  0
   25.8710   10.7460   20.0070 C   0  0  0  0  0  0  0  0  0  0  0  0
   24.8260   10.6610   20.9430 C   0  0  0  0  0  0  0  0  0  0  0  0
    0.0000    0.0000    0.0000 H   0  0  0  0  0  0  0  0  0  0  0  0
    0.0000    0.0000    0.0000 H   0  0  0  0  0  0  0  0  0  0  0  0
    0.0000    0.0000    0.0000 H   0  0  0  0  0  0  0  0  0  0  0  0
    0.0000    0.0000    0.0000 H   0  0  0  0  0  0  0  0  0  0  0  0
    0.0000    0.0000    0.0000 H   0  0  0  0  0  0  0  0  0  0  0  0
    0.0000    0.0000    0.0000 H   0  0  0  0  0  0  0  0  0  0  0  0
    0.0000    0.0000    0.0000 H   0  0  0  0  0  0  0  0  0  0  0  0
    0.0000    0.0000    0.0000 H   0  0  0  0  0  0  0  0  0  0  0  0
    0.0000    0.0000    0.0000 H   0  0  0  0  0  0  0  0  0  0  0  0
    0.0000    0.0000    0.0000 H   0  0  0  0  0  0  0  0  0  0  0  0
    0.0000    0.0000    0.0000 H   0  0  0  0  0  0  0  0  0  0  0  0
    0.0000    0.0000    0.0000 H   0  0  0  0  0  0  0  0  0  0  0  0
    0.0000    0.0000    0.0000 H   0  0  0  0  0  0  0  0  0  0  0  0
    0.0000    0.0000    0.0000 H   0  0  0  0  0  0  0  0  0  0  0  0
   12.5212    5.3128    9.1427 S   0  0  0  0  0  0  0  0  0  0  0  0
   12.5219    4.4022    7.5903 C   0  0  0  0  0  0  0  0  0  0  0  0
   13.5729    3.5034    7.5504 F   0  0  0  0  0  0  0  0  0  0  0  0
   11.3135    3.7211    7.4842 F   0  0  0  0  0  0  0  0  0  0  0  0
   12.6580    5.2815    6.5190 F   0  0  0  0  0  0  0  0  0  0  0  0
  1  3  2  0
  1  4  1  0
  1  5  1  0
  2  4  1  0
  2  6  1  0
  4  9  1  0
  4 15  1  0
  5  6  1  0
  5  8  1  0
  6  7  2  3
  9 10  2  0
  9 14  1  0
 10 11  1  0
 11 12  2  0
 12 13  1  0
 13 14  2  0
 15 16  2  0
 15 20  1  0
 16 17  1  0
 17 18  2  0
 18 19  1  0
 19 20  2  0
  2 21  1  0
  7 22  1  0
  8 23  1  0
  8 24  1  0
  8 25  1  0
 10 26  1  0
 11 27  1  0
 12 28  1  0
 13 29  1  0
 14 30  1  0
 16 31  1  0
 17 32  1  0
 19 33  1  0
 20 34  1  0
 35 36  1  0
 36 37  1  0
 36 38  1  0
 36 39  1  0
 18 35  1  0
M  END
>  <attachment_point>  (384) 
32

>  <score>  (384) 
<NA>

$$$$
4djw
     RDKit          3D

 62 66  0  0  0  0  0  0  0  0999 V2000
   22.4950   11.8750   22.5810 C   0  0  0  0  0  0  0  0  0  0  0  0
   22.5380    9.4930   22.4640 N   0  0  0  0  0  0  0  0  0  0  0  0
   22.3600   13.0630   22.3480 O   0  0  0  0  0  0  0  0  0  0  0  0
   22.3390   10.6680   21.5610 C   0  0  0  0  0  0  0  0  0  0  0  0
   22.7860   11.3350   23.8120 N   0  0  0  0  0  0  0  0  0  0  0  0
   22.7800    9.9140   23.7010 C   0  0  0  0  0  0  0  0  0  0  0  0
   22.9970    9.1110   24.7490 N   0  0  0  0  0  0  0  0  0  0  0  0
   23.0220   12.1410   25.0180 C   0  0  0  0  0  0  0  0  0  0  0  0
   20.9020   10.6270   21.0050 C   0  0  0  0  0  0  0  0  0  0  0  0
   20.2720    9.4140   20.7470 C   0  0  0  0  0  0  0  0  0  0  0  0
   18.9690    9.3760   20.2600 C   0  0  0  0  0  0  0  0  0  0  0  0
   18.2800   10.5440   20.0210 C   0  0  0  0  0  0  0  0  0  0  0  0
   18.8920   11.7530   20.2590 C   0  0  0  0  0  0  0  0  0  0  0  0
   20.1950   11.7970   20.7440 C   0  0  0  0  0  0  0  0  0  0  0  0
   23.4880   10.6920   20.5300 C   0  0  0  0  0  0  0  0  0  0  0  0
   23.2110   10.7890   19.1730 C   0  0  0  0  0  0  0  0  0  0  0  0
   24.2350   10.8650   18.2430 C   0  0  0  0  0  0  0  0  0  0  0  0
   25.5500   10.8410   18.6560 C   0  0  0  0  0  0  0  0  0  0  0  0
   25.8710   10.7460   20.0070 C   0  0  0  0  0  0  0  0  0  0  0  0
   24.8260   10.6610   20.9430 C   0  0  0  0  0  0  0  0  0  0  0  0
    0.0000    0.0000    0.0000 H   0  0  0  0  0  0  0  0  0  0  0  0
    0.0000    0.0000    0.0000 H   0  0  0  0  0  0  0  0  0  0  0  0
    0.0000    0.0000    0.0000 H   0  0  0  0  0  0  0  0  0  0  0  0
    0.0000    0.0000    0.0000 H   0  0  0  0  0  0  0  0  0  0  0  0
    0.0000    0.0000    0.0000 H   0  0  0  0  0  0  0  0  0  0  0  0
    0.0000    0.0000    0.0000 H   0  0  0  0  0  0  0  0  0  0  0  0
    0.0000    0.0000    0.0000 H   0  0  0  0  0  0  0  0  0  0  0  0
    0.0000    0.0000    0.0000 H   0  0  0  0  0  0  0  0  0  0  0  0
    0.0000    0.0000    0.0000 H   0  0  0  0  0  0  0  0  0  0  0  0
    0.0000    0.0000    0.0000 H   0  0  0  0  0  0  0  0  0  0  0  0
    0.0000    0.0000    0.0000 H   0  0  0  0  0  0  0  0  0  0  0  0
    0.0000    0.0000    0.0000 H   0  0  0  0  0  0  0  0  0  0  0  0
    0.0000    0.0000    0.0000 H   0  0  0  0  0  0  0  0  0  0  0  0
    0.0000    0.0000    0.0000 H   0  0  0  0  0  0  0  0  0  0  0  0
   12.4829    5.2965    9.1147 N   0  0  0  0  0  0  0  0  0  0  0  0
   12.6737    5.6249    7.7432 C   0  0  0  0  0  0  0  0  0  0  0  0
   11.5995    4.8466    6.9854 C   0  0  0  0  0  0  0  0  0  0  0  0
   10.2227    5.3543    7.3354 C   0  0  0  0  0  0  0  0  0  0  0  0
    9.6859    6.2795    6.4325 N   0  0  0  0  0  0  0  0  0  0  0  0
   10.2865    7.4825    6.1519 C   0  0  0  0  0  0  0  0  0  0  0  0
    9.2365    8.2109    5.2969 C   0  0  0  0  0  0  0  0  0  0  0  0
    7.9748    7.7560    6.0190 C   0  0  0  0  0  0  0  0  0  0  0  0
    8.2966    6.2771    6.2108 C   0  0  0  0  0  0  0  0  0  0  0  0
   10.1067    5.8730    8.7304 C   0  0  0  0  0  0  0  0  0  0  0  0
   11.2125    5.6016    9.6618 C   0  0  0  0  0  0  0  0  0  0  0  0
   12.6010    6.7139    7.5568 H   0  0  0  0  0  0  0  0  0  0  0  0
   13.6386    5.2253    7.4054 H   0  0  0  0  0  0  0  0  0  0  0  0
   11.7295    3.7874    7.2939 H   0  0  0  0  0  0  0  0  0  0  0  0
   11.7881    4.8770    5.9006 H   0  0  0  0  0  0  0  0  0  0  0  0
    9.5713    4.4294    7.2769 H   0  0  0  0  0  0  0  0  0  0  0  0
   10.3886    8.1068    7.0670 H   0  0  0  0  0  0  0  0  0  0  0  0
   11.2676    7.4927    5.6567 H   0  0  0  0  0  0  0  0  0  0  0  0
    9.2834    7.7363    4.2946 H   0  0  0  0  0  0  0  0  0  0  0  0
    9.3732    9.2876    5.2997 H   0  0  0  0  0  0  0  0  0  0  0  0
    7.9235    8.2880    6.9865 H   0  0  0  0  0  0  0  0  0  0  0  0
    7.0732    7.9047    5.4011 H   0  0  0  0  0  0  0  0  0  0  0  0
    7.7603    5.8577    7.0798 H   0  0  0  0  0  0  0  0  0  0  0  0
    7.9566    5.7360    5.2982 H   0  0  0  0  0  0  0  0  0  0  0  0
    9.9360    6.9920    8.7138 H   0  0  0  0  0  0  0  0  0  0  0  0
    9.1496    5.5041    9.2132 H   0  0  0  0  0  0  0  0  0  0  0  0
   10.9568    4.7451   10.3586 H   0  0  0  0  0  0  0  0  0  0  0  0
   11.3610    6.4646   10.3808 H   0  0  0  0  0  0  0  0  0  0  0  0
  1  3  2  0
  1  4  1  0
  1  5  1  0
  2  4  1  0
  2  6  1  0
  4  9  1  0
  4 15  1  0
  5  6  1  0
  5  8  1  0
  6  7  2  3
  9 10  2  0
  9 14  1  0
 10 11  1  0
 11 12  2  0
 12 13  1  0
 13 14  2  0
 15 16  2  0
 15 20  1  0
 16 17  1  0
 17 18  2  0
 18 19  1  0
 19 20  2  0
  2 21  1  0
  7 22  1  0
  8 23  1  0
  8 24  1  0
  8 25  1  0
 10 26  1  0
 11 27  1  0
 12 28  1  0
 13 29  1  0
 14 30  1  0
 16 31  1  0
 17 32  1  0
 19 33  1  0
 20 34  1  0
 35 36  1  0
 36 37  1  0
 37 38  1  0
 38 39  1  0
 39 40  1  0
 40 41  1  0
 41 42  1  0
 42 43  1  0
 38 44  1  0
 44 45  1  0
 45 35  1  0
 43 39  1  0
 36 46  1  0
 36 47  1  0
 37 48  1  0
 37 49  1  0
 38 50  1  0
 40 51  1  0
 40 52  1  0
 41 53  1  0
 41 54  1  0
 42 55  1  0
 42 56  1  0
 43 57  1  0
 43 58  1  0
 44 59  1  0
 44 60  1  0
 45 61  1  0
 45 62  1  0
 18 35  1  0
M  END
>  <attachment_point>  (385) 
32

>  <score>  (385) 
<NA>

$$$$
4djw
     RDKit          3D

 50 53  0  0  0  0  0  0  0  0999 V2000
   22.4950   11.8750   22.5810 C   0  0  0  0  0  0  0  0  0  0  0  0
   22.5380    9.4930   22.4640 N   0  0  0  0  0  0  0  0  0  0  0  0
   22.3600   13.0630   22.3480 O   0  0  0  0  0  0  0  0  0  0  0  0
   22.3390   10.6680   21.5610 C   0  0  0  0  0  0  0  0  0  0  0  0
   22.7860   11.3350   23.8120 N   0  0  0  0  0  0  0  0  0  0  0  0
   22.7800    9.9140   23.7010 C   0  0  0  0  0  0  0  0  0  0  0  0
   22.9970    9.1110   24.7490 N   0  0  0  0  0  0  0  0  0  0  0  0
   23.0220   12.1410   25.0180 C   0  0  0  0  0  0  0  0  0  0  0  0
   20.9020   10.6270   21.0050 C   0  0  0  0  0  0  0  0  0  0  0  0
   20.2720    9.4140   20.7470 C   0  0  0  0  0  0  0  0  0  0  0  0
   18.9690    9.3760   20.2600 C   0  0  0  0  0  0  0  0  0  0  0  0
   18.2800   10.5440   20.0210 C   0  0  0  0  0  0  0  0  0  0  0  0
   18.8920   11.7530   20.2590 C   0  0  0  0  0  0  0  0  0  0  0  0
   20.1950   11.7970   20.7440 C   0  0  0  0  0  0  0  0  0  0  0  0
   23.4880   10.6920   20.5300 C   0  0  0  0  0  0  0  0  0  0  0  0
   23.2110   10.7890   19.1730 C   0  0  0  0  0  0  0  0  0  0  0  0
   24.2350   10.8650   18.2430 C   0  0  0  0  0  0  0  0  0  0  0  0
   25.5500   10.8410   18.6560 C   0  0  0  0  0  0  0  0  0  0  0  0
   25.8710   10.7460   20.0070 C   0  0  0  0  0  0  0  0  0  0  0  0
   24.8260   10.6610   20.9430 C   0  0  0  0  0  0  0  0  0  0  0  0
    0.0000    0.0000    0.0000 H   0  0  0  0  0  0  0  0  0  0  0  0
    0.0000    0.0000    0.0000 H   0  0  0  0  0  0  0  0  0  0  0  0
    0.0000    0.0000    0.0000 H   0  0  0  0  0  0  0  0  0  0  0  0
    0.0000    0.0000    0.0000 H   0  0  0  0  0  0  0  0  0  0  0  0
    0.0000    0.0000    0.0000 H   0  0  0  0  0  0  0  0  0  0  0  0
    0.0000    0.0000    0.0000 H   0  0  0  0  0  0  0  0  0  0  0  0
    0.0000    0.0000    0.0000 H   0  0  0  0  0  0  0  0  0  0  0  0
    0.0000    0.0000    0.0000 H   0  0  0  0  0  0  0  0  0  0  0  0
    0.0000    0.0000    0.0000 H   0  0  0  0  0  0  0  0  0  0  0  0
    0.0000    0.0000    0.0000 H   0  0  0  0  0  0  0  0  0  0  0  0
    0.0000    0.0000    0.0000 H   0  0  0  0  0  0  0  0  0  0  0  0
    0.0000    0.0000    0.0000 H   0  0  0  0  0  0  0  0  0  0  0  0
    0.0000    0.0000    0.0000 H   0  0  0  0  0  0  0  0  0  0  0  0
    0.0000    0.0000    0.0000 H   0  0  0  0  0  0  0  0  0  0  0  0
   12.4312    5.2746    9.0770 C   0  0  0  0  0  0  0  0  0  0  0  0
   11.8199    6.1294    8.1821 C   0  0  0  0  0  0  0  0  0  0  0  0
   10.7696    5.6161    7.4425 C   0  0  0  0  0  0  0  0  0  0  0  0
   10.3624    4.3106    7.6012 C   0  0  0  0  0  0  0  0  0  0  0  0
   10.9807    3.4591    8.5009 C   0  0  0  0  0  0  0  0  0  0  0  0
   10.5599    2.0543    8.6874 C   0  0  0  0  0  0  0  0  0  0  0  0
    9.5543    1.8971    9.6968 N   0  0  0  0  0  0  0  0  0  0  0  0
   12.0277    3.9689    9.2392 C   0  0  0  0  0  0  0  0  0  0  0  0
   12.1446    7.1634    8.0586 H   0  0  0  0  0  0  0  0  0  0  0  0
   10.2663    6.2698    6.7259 H   0  0  0  0  0  0  0  0  0  0  0  0
    9.5340    3.9042    7.0185 H   0  0  0  0  0  0  0  0  0  0  0  0
   11.3769    1.3622    8.8972 H   0  0  0  0  0  0  0  0  0  0  0  0
   10.0997    1.7197    7.7146 H   0  0  0  0  0  0  0  0  0  0  0  0
    8.8827    1.1297    9.4673 H   0  0  0  0  0  0  0  0  0  0  0  0
    9.9613    1.6622   10.6486 H   0  0  0  0  0  0  0  0  0  0  0  0
   12.5260    3.3075    9.9541 H   0  0  0  0  0  0  0  0  0  0  0  0
  1  3  2  0
  1  4  1  0
  1  5  1  0
  2  4  1  0
  2  6  1  0
  4  9  1  0
  4 15  1  0
  5  6  1  0
  5  8  1  0
  6  7  2  3
  9 10  2  0
  9 14  1  0
 10 11  1  0
 11 12  2  0
 12 13  1  0
 13 14  2  0
 15 16  2  0
 15 20  1  0
 16 17  1  0
 17 18  2  0
 18 19  1  0
 19 20  2  0
  2 21  1  0
  7 22  1  0
  8 23  1  0
  8 24  1  0
  8 25  1  0
 10 26  1  0
 11 27  1  0
 12 28  1  0
 13 29  1  0
 14 30  1  0
 16 31  1  0
 17 32  1  0
 19 33  1  0
 20 34  1  0
 35 36  2  0
 36 37  1  0
 37 38  2  0
 38 39  1  0
 39 40  1  0
 40 41  1  0
 39 42  2  0
 42 35  1  0
 36 43  1  0
 37 44  1  0
 38 45  1  0
 40 46  1  0
 40 47  1  0
 41 48  1  0
 41 49  1  0
 42 50  1  0
 18 35  1  0
M  END
>  <attachment_point>  (386) 
32

>  <score>  (386) 
<NA>

$$$$
4djw
     RDKit          3D

 46 49  0  0  0  0  0  0  0  0999 V2000
   22.4950   11.8750   22.5810 C   0  0  0  0  0  0  0  0  0  0  0  0
   22.5380    9.4930   22.4640 N   0  0  0  0  0  0  0  0  0  0  0  0
   22.3600   13.0630   22.3480 O   0  0  0  0  0  0  0  0  0  0  0  0
   22.3390   10.6680   21.5610 C   0  0  0  0  0  0  0  0  0  0  0  0
   22.7860   11.3350   23.8120 N   0  0  0  0  0  0  0  0  0  0  0  0
   22.7800    9.9140   23.7010 C   0  0  0  0  0  0  0  0  0  0  0  0
   22.9970    9.1110   24.7490 N   0  0  0  0  0  0  0  0  0  0  0  0
   23.0220   12.1410   25.0180 C   0  0  0  0  0  0  0  0  0  0  0  0
   20.9020   10.6270   21.0050 C   0  0  0  0  0  0  0  0  0  0  0  0
   20.2720    9.4140   20.7470 C   0  0  0  0  0  0  0  0  0  0  0  0
   18.9690    9.3760   20.2600 C   0  0  0  0  0  0  0  0  0  0  0  0
   18.2800   10.5440   20.0210 C   0  0  0  0  0  0  0  0  0  0  0  0
   18.8920   11.7530   20.2590 C   0  0  0  0  0  0  0  0  0  0  0  0
   20.1950   11.7970   20.7440 C   0  0  0  0  0  0  0  0  0  0  0  0
   23.4880   10.6920   20.5300 C   0  0  0  0  0  0  0  0  0  0  0  0
   23.2110   10.7890   19.1730 C   0  0  0  0  0  0  0  0  0  0  0  0
   24.2350   10.8650   18.2430 C   0  0  0  0  0  0  0  0  0  0  0  0
   25.5500   10.8410   18.6560 C   0  0  0  0  0  0  0  0  0  0  0  0
   25.8710   10.7460   20.0070 C   0  0  0  0  0  0  0  0  0  0  0  0
   24.8260   10.6610   20.9430 C   0  0  0  0  0  0  0  0  0  0  0  0
    0.0000    0.0000    0.0000 H   0  0  0  0  0  0  0  0  0  0  0  0
    0.0000    0.0000    0.0000 H   0  0  0  0  0  0  0  0  0  0  0  0
    0.0000    0.0000    0.0000 H   0  0  0  0  0  0  0  0  0  0  0  0
    0.0000    0.0000    0.0000 H   0  0  0  0  0  0  0  0  0  0  0  0
    0.0000    0.0000    0.0000 H   0  0  0  0  0  0  0  0  0  0  0  0
    0.0000    0.0000    0.0000 H   0  0  0  0  0  0  0  0  0  0  0  0
    0.0000    0.0000    0.0000 H   0  0  0  0  0  0  0  0  0  0  0  0
    0.0000    0.0000    0.0000 H   0  0  0  0  0  0  0  0  0  0  0  0
    0.0000    0.0000    0.0000 H   0  0  0  0  0  0  0  0  0  0  0  0
    0.0000    0.0000    0.0000 H   0  0  0  0  0  0  0  0  0  0  0  0
    0.0000    0.0000    0.0000 H   0  0  0  0  0  0  0  0  0  0  0  0
    0.0000    0.0000    0.0000 H   0  0  0  0  0  0  0  0  0  0  0  0
    0.0000    0.0000    0.0000 H   0  0  0  0  0  0  0  0  0  0  0  0
    0.0000    0.0000    0.0000 H   0  0  0  0  0  0  0  0  0  0  0  0
   12.4309    5.2745    9.0767 C   0  0  0  0  0  0  0  0  0  0  0  0
   11.4486    6.1559    8.8204 N   0  0  0  0  0  0  0  0  0  0  0  0
   10.3949    5.7619    8.0699 C   0  0  0  0  0  0  0  0  0  0  0  0
   10.3545    4.4602    7.5842 C   0  0  0  0  0  0  0  0  0  0  0  0
   11.3892    3.5836    7.8726 C   0  0  0  0  0  0  0  0  0  0  0  0
   11.3349    2.1936    7.3475 C   0  0  0  0  0  0  0  0  0  0  0  0
   10.0375    1.8026    7.0847 F   0  0  0  0  0  0  0  0  0  0  0  0
   12.0388    2.0965    6.1521 F   0  0  0  0  0  0  0  0  0  0  0  0
   11.9067    1.3290    8.2709 F   0  0  0  0  0  0  0  0  0  0  0  0
   12.4281    4.0077    8.6253 N   0  0  0  0  0  0  0  0  0  0  0  0
    9.5718    6.4242    7.8280 H   0  0  0  0  0  0  0  0  0  0  0  0
    9.5387    4.0875    6.9792 H   0  0  0  0  0  0  0  0  0  0  0  0
  1  3  2  0
  1  4  1  0
  1  5  1  0
  2  4  1  0
  2  6  1  0
  4  9  1  0
  4 15  1  0
  5  6  1  0
  5  8  1  0
  6  7  2  3
  9 10  2  0
  9 14  1  0
 10 11  1  0
 11 12  2  0
 12 13  1  0
 13 14  2  0
 15 16  2  0
 15 20  1  0
 16 17  1  0
 17 18  2  0
 18 19  1  0
 19 20  2  0
  2 21  1  0
  7 22  1  0
  8 23  1  0
  8 24  1  0
  8 25  1  0
 10 26  1  0
 11 27  1  0
 12 28  1  0
 13 29  1  0
 14 30  1  0
 16 31  1  0
 17 32  1  0
 19 33  1  0
 20 34  1  0
 35 36  2  0
 36 37  1  0
 37 38  2  0
 38 39  1  0
 39 40  1  0
 40 41  1  0
 40 42  1  0
 40 43  1  0
 39 44  2  0
 44 35  1  0
 37 45  1  0
 38 46  1  0
 18 35  1  0
M  END
>  <attachment_point>  (387) 
32

>  <score>  (387) 
<NA>

$$$$
4djw
     RDKit          3D

 52 55  0  0  0  0  0  0  0  0999 V2000
   22.4950   11.8750   22.5810 C   0  0  0  0  0  0  0  0  0  0  0  0
   22.5380    9.4930   22.4640 N   0  0  0  0  0  0  0  0  0  0  0  0
   22.3600   13.0630   22.3480 O   0  0  0  0  0  0  0  0  0  0  0  0
   22.3390   10.6680   21.5610 C   0  0  0  0  0  0  0  0  0  0  0  0
   22.7860   11.3350   23.8120 N   0  0  0  0  0  0  0  0  0  0  0  0
   22.7800    9.9140   23.7010 C   0  0  0  0  0  0  0  0  0  0  0  0
   22.9970    9.1110   24.7490 N   0  0  0  0  0  0  0  0  0  0  0  0
   23.0220   12.1410   25.0180 C   0  0  0  0  0  0  0  0  0  0  0  0
   20.9020   10.6270   21.0050 C   0  0  0  0  0  0  0  0  0  0  0  0
   20.2720    9.4140   20.7470 C   0  0  0  0  0  0  0  0  0  0  0  0
   18.9690    9.3760   20.2600 C   0  0  0  0  0  0  0  0  0  0  0  0
   18.2800   10.5440   20.0210 C   0  0  0  0  0  0  0  0  0  0  0  0
   18.8920   11.7530   20.2590 C   0  0  0  0  0  0  0  0  0  0  0  0
   20.1950   11.7970   20.7440 C   0  0  0  0  0  0  0  0  0  0  0  0
   23.4880   10.6920   20.5300 C   0  0  0  0  0  0  0  0  0  0  0  0
   23.2110   10.7890   19.1730 C   0  0  0  0  0  0  0  0  0  0  0  0
   24.2350   10.8650   18.2430 C   0  0  0  0  0  0  0  0  0  0  0  0
   25.5500   10.8410   18.6560 C   0  0  0  0  0  0  0  0  0  0  0  0
   25.8710   10.7460   20.0070 C   0  0  0  0  0  0  0  0  0  0  0  0
   24.8260   10.6610   20.9430 C   0  0  0  0  0  0  0  0  0  0  0  0
    0.0000    0.0000    0.0000 H   0  0  0  0  0  0  0  0  0  0  0  0
    0.0000    0.0000    0.0000 H   0  0  0  0  0  0  0  0  0  0  0  0
    0.0000    0.0000    0.0000 H   0  0  0  0  0  0  0  0  0  0  0  0
    0.0000    0.0000    0.0000 H   0  0  0  0  0  0  0  0  0  0  0  0
    0.0000    0.0000    0.0000 H   0  0  0  0  0  0  0  0  0  0  0  0
    0.0000    0.0000    0.0000 H   0  0  0  0  0  0  0  0  0  0  0  0
    0.0000    0.0000    0.0000 H   0  0  0  0  0  0  0  0  0  0  0  0
    0.0000    0.0000    0.0000 H   0  0  0  0  0  0  0  0  0  0  0  0
    0.0000    0.0000    0.0000 H   0  0  0  0  0  0  0  0  0  0  0  0
    0.0000    0.0000    0.0000 H   0  0  0  0  0  0  0  0  0  0  0  0
    0.0000    0.0000    0.0000 H   0  0  0  0  0  0  0  0  0  0  0  0
    0.0000    0.0000    0.0000 H   0  0  0  0  0  0  0  0  0  0  0  0
    0.0000    0.0000    0.0000 H   0  0  0  0  0  0  0  0  0  0  0  0
    0.0000    0.0000    0.0000 H   0  0  0  0  0  0  0  0  0  0  0  0
   12.4405    5.2786    9.0838 C   0  0  0  0  0  0  0  0  0  0  0  0
   11.8571    4.0501    9.6599 C   0  0  0  0  0  0  0  0  0  0  0  0
   12.3386    2.8135    9.2813 C   0  0  0  0  0  0  0  0  0  0  0  0
   11.7473    1.7091    9.8593 C   0  0  0  0  0  0  0  0  0  0  0  0
   10.7198    1.8183   10.7762 C   0  0  0  0  0  0  0  0  0  0  0  0
   10.2372    3.0535   11.1558 C   0  0  0  0  0  0  0  0  0  0  0  0
    9.2043    3.1431   12.0785 O   0  0  0  0  0  0  0  0  0  0  0  0
    8.7585    4.4407   12.4223 C   0  0  0  0  0  0  0  0  0  0  0  0
   10.8235    4.1621   10.5821 C   0  0  0  0  0  0  0  0  0  0  0  0
   12.7581    5.1092    8.0292 H   0  0  0  0  0  0  0  0  0  0  0  0
   11.6825    6.0969    9.0867 H   0  0  0  0  0  0  0  0  0  0  0  0
   13.1504    2.7051    8.5579 H   0  0  0  0  0  0  0  0  0  0  0  0
   12.1093    0.7333    9.5766 H   0  0  0  0  0  0  0  0  0  0  0  0
   10.2512    0.9381   11.2344 H   0  0  0  0  0  0  0  0  0  0  0  0
    9.5596    5.0696   12.8431 H   0  0  0  0  0  0  0  0  0  0  0  0
    7.8465    4.4006   13.0494 H   0  0  0  0  0  0  0  0  0  0  0  0
    8.4768    4.9335   11.4458 H   0  0  0  0  0  0  0  0  0  0  0  0
   10.4318    5.1228   10.8922 H   0  0  0  0  0  0  0  0  0  0  0  0
  1  3  2  0
  1  4  1  0
  1  5  1  0
  2  4  1  0
  2  6  1  0
  4  9  1  0
  4 15  1  0
  5  6  1  0
  5  8  1  0
  6  7  2  3
  9 10  2  0
  9 14  1  0
 10 11  1  0
 11 12  2  0
 12 13  1  0
 13 14  2  0
 15 16  2  0
 15 20  1  0
 16 17  1  0
 17 18  2  0
 18 19  1  0
 19 20  2  0
  2 21  1  0
  7 22  1  0
  8 23  1  0
  8 24  1  0
  8 25  1  0
 10 26  1  0
 11 27  1  0
 12 28  1  0
 13 29  1  0
 14 30  1  0
 16 31  1  0
 17 32  1  0
 19 33  1  0
 20 34  1  0
 35 36  1  0
 36 37  2  0
 37 38  1  0
 38 39  2  0
 39 40  1  0
 40 41  1  0
 41 42  1  0
 40 43  2  0
 43 36  1  0
 35 44  1  0
 35 45  1  0
 37 46  1  0
 38 47  1  0
 39 48  1  0
 42 49  1  0
 42 50  1  0
 42 51  1  0
 43 52  1  0
 18 35  1  0
M  END
>  <attachment_point>  (388) 
32

>  <score>  (388) 
<NA>

$$$$
4djw
     RDKit          3D

 51 53  0  0  0  0  0  0  0  0999 V2000
   22.4950   11.8750   22.5810 C   0  0  0  0  0  0  0  0  0  0  0  0
   22.5380    9.4930   22.4640 N   0  0  0  0  0  0  0  0  0  0  0  0
   22.3600   13.0630   22.3480 O   0  0  0  0  0  0  0  0  0  0  0  0
   22.3390   10.6680   21.5610 C   0  0  0  0  0  0  0  0  0  0  0  0
   22.7860   11.3350   23.8120 N   0  0  0  0  0  0  0  0  0  0  0  0
   22.7800    9.9140   23.7010 C   0  0  0  0  0  0  0  0  0  0  0  0
   22.9970    9.1110   24.7490 N   0  0  0  0  0  0  0  0  0  0  0  0
   23.0220   12.1410   25.0180 C   0  0  0  0  0  0  0  0  0  0  0  0
   20.9020   10.6270   21.0050 C   0  0  0  0  0  0  0  0  0  0  0  0
   20.2720    9.4140   20.7470 C   0  0  0  0  0  0  0  0  0  0  0  0
   18.9690    9.3760   20.2600 C   0  0  0  0  0  0  0  0  0  0  0  0
   18.2800   10.5440   20.0210 C   0  0  0  0  0  0  0  0  0  0  0  0
   18.8920   11.7530   20.2590 C   0  0  0  0  0  0  0  0  0  0  0  0
   20.1950   11.7970   20.7440 C   0  0  0  0  0  0  0  0  0  0  0  0
   23.4880   10.6920   20.5300 C   0  0  0  0  0  0  0  0  0  0  0  0
   23.2110   10.7890   19.1730 C   0  0  0  0  0  0  0  0  0  0  0  0
   24.2350   10.8650   18.2430 C   0  0  0  0  0  0  0  0  0  0  0  0
   25.5500   10.8410   18.6560 C   0  0  0  0  0  0  0  0  0  0  0  0
   25.8710   10.7460   20.0070 C   0  0  0  0  0  0  0  0  0  0  0  0
   24.8260   10.6610   20.9430 C   0  0  0  0  0  0  0  0  0  0  0  0
    0.0000    0.0000    0.0000 H   0  0  0  0  0  0  0  0  0  0  0  0
    0.0000    0.0000    0.0000 H   0  0  0  0  0  0  0  0  0  0  0  0
    0.0000    0.0000    0.0000 H   0  0  0  0  0  0  0  0  0  0  0  0
    0.0000    0.0000    0.0000 H   0  0  0  0  0  0  0  0  0  0  0  0
    0.0000    0.0000    0.0000 H   0  0  0  0  0  0  0  0  0  0  0  0
    0.0000    0.0000    0.0000 H   0  0  0  0  0  0  0  0  0  0  0  0
    0.0000    0.0000    0.0000 H   0  0  0  0  0  0  0  0  0  0  0  0
    0.0000    0.0000    0.0000 H   0  0  0  0  0  0  0  0  0  0  0  0
    0.0000    0.0000    0.0000 H   0  0  0  0  0  0  0  0  0  0  0  0
    0.0000    0.0000    0.0000 H   0  0  0  0  0  0  0  0  0  0  0  0
    0.0000    0.0000    0.0000 H   0  0  0  0  0  0  0  0  0  0  0  0
    0.0000    0.0000    0.0000 H   0  0  0  0  0  0  0  0  0  0  0  0
    0.0000    0.0000    0.0000 H   0  0  0  0  0  0  0  0  0  0  0  0
    0.0000    0.0000    0.0000 H   0  0  0  0  0  0  0  0  0  0  0  0
   12.4168    5.2685    9.0665 C   0  0  0  0  0  0  0  0  0  0  0  0
   11.9530    6.0058    8.1786 O   0  0  0  0  0  0  0  0  0  0  0  0
   11.8752    4.0054    9.2786 N   0  0  0  0  0  0  0  0  0  0  0  0
   10.7744    3.4189    8.5496 C   0  0  0  0  0  0  0  0  0  0  0  0
    9.5686    4.3045    8.7644 C   0  0  0  0  0  0  0  0  0  0  0  0
    8.3484    3.7780    8.0431 C   0  0  0  0  0  0  0  0  0  0  0  0
    8.5481    3.6821    6.5595 C   0  0  0  0  0  0  0  0  0  0  0  0
   12.3007    3.4090   10.0422 H   0  0  0  0  0  0  0  0  0  0  0  0
   11.0318    3.3500    7.4701 H   0  0  0  0  0  0  0  0  0  0  0  0
   10.5359    2.3932    8.9153 H   0  0  0  0  0  0  0  0  0  0  0  0
    9.3302    4.2370    9.8620 H   0  0  0  0  0  0  0  0  0  0  0  0
    9.7793    5.3337    8.4820 H   0  0  0  0  0  0  0  0  0  0  0  0
    7.5234    4.4952    8.2346 H   0  0  0  0  0  0  0  0  0  0  0  0
    8.0523    2.8155    8.5142 H   0  0  0  0  0  0  0  0  0  0  0  0
    7.8219    4.3329    5.9963 H   0  0  0  0  0  0  0  0  0  0  0  0
    9.5519    3.9888    6.2197 H   0  0  0  0  0  0  0  0  0  0  0  0
    8.2922    2.6322    6.2334 H   0  0  0  0  0  0  0  0  0  0  0  0
  1  3  2  0
  1  4  1  0
  1  5  1  0
  2  4  1  0
  2  6  1  0
  4  9  1  0
  4 15  1  0
  5  6  1  0
  5  8  1  0
  6  7  2  3
  9 10  2  0
  9 14  1  0
 10 11  1  0
 11 12  2  0
 12 13  1  0
 13 14  2  0
 15 16  2  0
 15 20  1  0
 16 17  1  0
 17 18  2  0
 18 19  1  0
 19 20  2  0
  2 21  1  0
  7 22  1  0
  8 23  1  0
  8 24  1  0
  8 25  1  0
 10 26  1  0
 11 27  1  0
 12 28  1  0
 13 29  1  0
 14 30  1  0
 16 31  1  0
 17 32  1  0
 19 33  1  0
 20 34  1  0
 35 36  2  0
 35 37  1  0
 37 38  1  0
 38 39  1  0
 39 40  1  0
 40 41  1  0
 37 42  1  0
 38 43  1  0
 38 44  1  0
 39 45  1  0
 39 46  1  0
 40 47  1  0
 40 48  1  0
 41 49  1  0
 41 50  1  0
 41 51  1  0
 18 35  1  0
M  END
>  <attachment_point>  (389) 
32

>  <score>  (389) 
<NA>

$$$$
4djw
     RDKit          3D

 51 54  0  0  0  0  0  0  0  0999 V2000
   22.4950   11.8750   22.5810 C   0  0  0  0  0  0  0  0  0  0  0  0
   22.5380    9.4930   22.4640 N   0  0  0  0  0  0  0  0  0  0  0  0
   22.3600   13.0630   22.3480 O   0  0  0  0  0  0  0  0  0  0  0  0
   22.3390   10.6680   21.5610 C   0  0  0  0  0  0  0  0  0  0  0  0
   22.7860   11.3350   23.8120 N   0  0  0  0  0  0  0  0  0  0  0  0
   22.7800    9.9140   23.7010 C   0  0  0  0  0  0  0  0  0  0  0  0
   22.9970    9.1110   24.7490 N   0  0  0  0  0  0  0  0  0  0  0  0
   23.0220   12.1410   25.0180 C   0  0  0  0  0  0  0  0  0  0  0  0
   20.9020   10.6270   21.0050 C   0  0  0  0  0  0  0  0  0  0  0  0
   20.2720    9.4140   20.7470 C   0  0  0  0  0  0  0  0  0  0  0  0
   18.9690    9.3760   20.2600 C   0  0  0  0  0  0  0  0  0  0  0  0
   18.2800   10.5440   20.0210 C   0  0  0  0  0  0  0  0  0  0  0  0
   18.8920   11.7530   20.2590 C   0  0  0  0  0  0  0  0  0  0  0  0
   20.1950   11.7970   20.7440 C   0  0  0  0  0  0  0  0  0  0  0  0
   23.4880   10.6920   20.5300 C   0  0  0  0  0  0  0  0  0  0  0  0
   23.2110   10.7890   19.1730 C   0  0  0  0  0  0  0  0  0  0  0  0
   24.2350   10.8650   18.2430 C   0  0  0  0  0  0  0  0  0  0  0  0
   25.5500   10.8410   18.6560 C   0  0  0  0  0  0  0  0  0  0  0  0
   25.8710   10.7460   20.0070 C   0  0  0  0  0  0  0  0  0  0  0  0
   24.8260   10.6610   20.9430 C   0  0  0  0  0  0  0  0  0  0  0  0
    0.0000    0.0000    0.0000 H   0  0  0  0  0  0  0  0  0  0  0  0
    0.0000    0.0000    0.0000 H   0  0  0  0  0  0  0  0  0  0  0  0
    0.0000    0.0000    0.0000 H   0  0  0  0  0  0  0  0  0  0  0  0
    0.0000    0.0000    0.0000 H   0  0  0  0  0  0  0  0  0  0  0  0
    0.0000    0.0000    0.0000 H   0  0  0  0  0  0  0  0  0  0  0  0
    0.0000    0.0000    0.0000 H   0  0  0  0  0  0  0  0  0  0  0  0
    0.0000    0.0000    0.0000 H   0  0  0  0  0  0  0  0  0  0  0  0
    0.0000    0.0000    0.0000 H   0  0  0  0  0  0  0  0  0  0  0  0
    0.0000    0.0000    0.0000 H   0  0  0  0  0  0  0  0  0  0  0  0
    0.0000    0.0000    0.0000 H   0  0  0  0  0  0  0  0  0  0  0  0
    0.0000    0.0000    0.0000 H   0  0  0  0  0  0  0  0  0  0  0  0
    0.0000    0.0000    0.0000 H   0  0  0  0  0  0  0  0  0  0  0  0
    0.0000    0.0000    0.0000 H   0  0  0  0  0  0  0  0  0  0  0  0
    0.0000    0.0000    0.0000 H   0  0  0  0  0  0  0  0  0  0  0  0
   12.4420    5.2792    9.0849 C   0  0  1  0  0  0  0  0  0  0  0  0
   11.5647    6.4683    8.8218 C   0  0  0  0  0  0  0  0  0  0  0  0
   12.9448    4.6335    7.8581 C   0  0  0  0  0  0  0  0  0  0  0  0
   12.7123    3.3090    7.5623 C   0  0  0  0  0  0  0  0  0  0  0  0
   13.2202    2.7609    6.3787 C   0  0  0  0  0  0  0  0  0  0  0  0
   13.9549    3.5153    5.4889 C   0  0  0  0  0  0  0  0  0  0  0  0
   14.1787    4.8400    5.8003 C   0  0  0  0  0  0  0  0  0  0  0  0
   13.6747    5.3846    6.9753 C   0  0  0  0  0  0  0  0  0  0  0  0
   11.8645    4.5691    9.7221 H   0  0  0  0  0  0  0  0  0  0  0  0
   11.5468    7.0742    9.7588 H   0  0  0  0  0  0  0  0  0  0  0  0
   11.9754    7.1379    8.0363 H   0  0  0  0  0  0  0  0  0  0  0  0
   10.5277    6.2053    8.5643 H   0  0  0  0  0  0  0  0  0  0  0  0
   12.1388    2.7232    8.2585 H   0  0  0  0  0  0  0  0  0  0  0  0
   13.0276    1.7235    6.1652 H   0  0  0  0  0  0  0  0  0  0  0  0
   14.3508    3.0751    4.5593 H   0  0  0  0  0  0  0  0  0  0  0  0
   14.7592    5.4359    5.0973 H   0  0  0  0  0  0  0  0  0  0  0  0
   13.8667    6.4161    7.1865 H   0  0  0  0  0  0  0  0  0  0  0  0
  1  3  2  0
  1  4  1  0
  1  5  1  0
  2  4  1  0
  2  6  1  0
  4  9  1  0
  4 15  1  0
  5  6  1  0
  5  8  1  0
  6  7  2  3
  9 10  2  0
  9 14  1  0
 10 11  1  0
 11 12  2  0
 12 13  1  0
 13 14  2  0
 15 16  2  0
 15 20  1  0
 16 17  1  0
 17 18  2  0
 18 19  1  0
 19 20  2  0
  2 21  1  0
  7 22  1  0
  8 23  1  0
  8 24  1  0
  8 25  1  0
 10 26  1  0
 11 27  1  0
 12 28  1  0
 13 29  1  0
 14 30  1  0
 16 31  1  0
 17 32  1  0
 19 33  1  0
 20 34  1  0
 35 36  1  0
 35 37  1  0
 37 38  2  0
 38 39  1  0
 39 40  2  0
 40 41  1  0
 41 42  2  0
 42 37  1  0
 35 43  1  6
 36 44  1  0
 36 45  1  0
 36 46  1  0
 38 47  1  0
 39 48  1  0
 40 49  1  0
 41 50  1  0
 42 51  1  0
 18 35  1  0
M  END
>  <attachment_point>  (390) 
32

>  <score>  (390) 
<NA>

$$$$
4djw
     RDKit          3D

 42 44  0  0  0  0  0  0  0  0999 V2000
   22.4950   11.8750   22.5810 C   0  0  0  0  0  0  0  0  0  0  0  0
   22.5380    9.4930   22.4640 N   0  0  0  0  0  0  0  0  0  0  0  0
   22.3600   13.0630   22.3480 O   0  0  0  0  0  0  0  0  0  0  0  0
   22.3390   10.6680   21.5610 C   0  0  0  0  0  0  0  0  0  0  0  0
   22.7860   11.3350   23.8120 N   0  0  0  0  0  0  0  0  0  0  0  0
   22.7800    9.9140   23.7010 C   0  0  0  0  0  0  0  0  0  0  0  0
   22.9970    9.1110   24.7490 N   0  0  0  0  0  0  0  0  0  0  0  0
   23.0220   12.1410   25.0180 C   0  0  0  0  0  0  0  0  0  0  0  0
   20.9020   10.6270   21.0050 C   0  0  0  0  0  0  0  0  0  0  0  0
   20.2720    9.4140   20.7470 C   0  0  0  0  0  0  0  0  0  0  0  0
   18.9690    9.3760   20.2600 C   0  0  0  0  0  0  0  0  0  0  0  0
   18.2800   10.5440   20.0210 C   0  0  0  0  0  0  0  0  0  0  0  0
   18.8920   11.7530   20.2590 C   0  0  0  0  0  0  0  0  0  0  0  0
   20.1950   11.7970   20.7440 C   0  0  0  0  0  0  0  0  0  0  0  0
   23.4880   10.6920   20.5300 C   0  0  0  0  0  0  0  0  0  0  0  0
   23.2110   10.7890   19.1730 C   0  0  0  0  0  0  0  0  0  0  0  0
   24.2350   10.8650   18.2430 C   0  0  0  0  0  0  0  0  0  0  0  0
   25.5500   10.8410   18.6560 C   0  0  0  0  0  0  0  0  0  0  0  0
   25.8710   10.7460   20.0070 C   0  0  0  0  0  0  0  0  0  0  0  0
   24.8260   10.6610   20.9430 C   0  0  0  0  0  0  0  0  0  0  0  0
    0.0000    0.0000    0.0000 H   0  0  0  0  0  0  0  0  0  0  0  0
    0.0000    0.0000    0.0000 H   0  0  0  0  0  0  0  0  0  0  0  0
    0.0000    0.0000    0.0000 H   0  0  0  0  0  0  0  0  0  0  0  0
    0.0000    0.0000    0.0000 H   0  0  0  0  0  0  0  0  0  0  0  0
    0.0000    0.0000    0.0000 H   0  0  0  0  0  0  0  0  0  0  0  0
    0.0000    0.0000    0.0000 H   0  0  0  0  0  0  0  0  0  0  0  0
    0.0000    0.0000    0.0000 H   0  0  0  0  0  0  0  0  0  0  0  0
    0.0000    0.0000    0.0000 H   0  0  0  0  0  0  0  0  0  0  0  0
    0.0000    0.0000    0.0000 H   0  0  0  0  0  0  0  0  0  0  0  0
    0.0000    0.0000    0.0000 H   0  0  0  0  0  0  0  0  0  0  0  0
    0.0000    0.0000    0.0000 H   0  0  0  0  0  0  0  0  0  0  0  0
    0.0000    0.0000    0.0000 H   0  0  0  0  0  0  0  0  0  0  0  0
    0.0000    0.0000    0.0000 H   0  0  0  0  0  0  0  0  0  0  0  0
    0.0000    0.0000    0.0000 H   0  0  0  0  0  0  0  0  0  0  0  0
   12.5718    5.3343    9.1796 O   0  0  0  0  0  0  0  0  0  0  0  0
   11.9420    5.9846    8.1064 C   0  0  0  0  0  0  0  0  0  0  0  0
   10.8527    5.0631    7.6192 C   0  0  0  0  0  0  0  0  0  0  0  0
    9.9227    4.7750    8.5660 F   0  0  0  0  0  0  0  0  0  0  0  0
   10.1996    5.6429    6.5462 F   0  0  0  0  0  0  0  0  0  0  0  0
   11.4642    3.8930    7.2060 F   0  0  0  0  0  0  0  0  0  0  0  0
   11.5788    6.9579    8.4561 H   0  0  0  0  0  0  0  0  0  0  0  0
   12.6834    6.0647    7.2702 H   0  0  0  0  0  0  0  0  0  0  0  0
  1  3  2  0
  1  4  1  0
  1  5  1  0
  2  4  1  0
  2  6  1  0
  4  9  1  0
  4 15  1  0
  5  6  1  0
  5  8  1  0
  6  7  2  3
  9 10  2  0
  9 14  1  0
 10 11  1  0
 11 12  2  0
 12 13  1  0
 13 14  2  0
 15 16  2  0
 15 20  1  0
 16 17  1  0
 17 18  2  0
 18 19  1  0
 19 20  2  0
  2 21  1  0
  7 22  1  0
  8 23  1  0
  8 24  1  0
  8 25  1  0
 10 26  1  0
 11 27  1  0
 12 28  1  0
 13 29  1  0
 14 30  1  0
 16 31  1  0
 17 32  1  0
 19 33  1  0
 20 34  1  0
 35 36  1  0
 36 37  1  0
 37 38  1  0
 37 39  1  0
 37 40  1  0
 36 41  1  0
 36 42  1  0
 18 35  1  0
M  END
>  <attachment_point>  (391) 
32

>  <score>  (391) 
<NA>

$$$$
4djw
     RDKit          3D

 44 47  0  0  0  0  0  0  0  0999 V2000
   22.4950   11.8750   22.5810 C   0  0  0  0  0  0  0  0  0  0  0  0
   22.5380    9.4930   22.4640 N   0  0  0  0  0  0  0  0  0  0  0  0
   22.3600   13.0630   22.3480 O   0  0  0  0  0  0  0  0  0  0  0  0
   22.3390   10.6680   21.5610 C   0  0  0  0  0  0  0  0  0  0  0  0
   22.7860   11.3350   23.8120 N   0  0  0  0  0  0  0  0  0  0  0  0
   22.7800    9.9140   23.7010 C   0  0  0  0  0  0  0  0  0  0  0  0
   22.9970    9.1110   24.7490 N   0  0  0  0  0  0  0  0  0  0  0  0
   23.0220   12.1410   25.0180 C   0  0  0  0  0  0  0  0  0  0  0  0
   20.9020   10.6270   21.0050 C   0  0  0  0  0  0  0  0  0  0  0  0
   20.2720    9.4140   20.7470 C   0  0  0  0  0  0  0  0  0  0  0  0
   18.9690    9.3760   20.2600 C   0  0  0  0  0  0  0  0  0  0  0  0
   18.2800   10.5440   20.0210 C   0  0  0  0  0  0  0  0  0  0  0  0
   18.8920   11.7530   20.2590 C   0  0  0  0  0  0  0  0  0  0  0  0
   20.1950   11.7970   20.7440 C   0  0  0  0  0  0  0  0  0  0  0  0
   23.4880   10.6920   20.5300 C   0  0  0  0  0  0  0  0  0  0  0  0
   23.2110   10.7890   19.1730 C   0  0  0  0  0  0  0  0  0  0  0  0
   24.2350   10.8650   18.2430 C   0  0  0  0  0  0  0  0  0  0  0  0
   25.5500   10.8410   18.6560 C   0  0  0  0  0  0  0  0  0  0  0  0
   25.8710   10.7460   20.0070 C   0  0  0  0  0  0  0  0  0  0  0  0
   24.8260   10.6610   20.9430 C   0  0  0  0  0  0  0  0  0  0  0  0
    0.0000    0.0000    0.0000 H   0  0  0  0  0  0  0  0  0  0  0  0
    0.0000    0.0000    0.0000 H   0  0  0  0  0  0  0  0  0  0  0  0
    0.0000    0.0000    0.0000 H   0  0  0  0  0  0  0  0  0  0  0  0
    0.0000    0.0000    0.0000 H   0  0  0  0  0  0  0  0  0  0  0  0
    0.0000    0.0000    0.0000 H   0  0  0  0  0  0  0  0  0  0  0  0
    0.0000    0.0000    0.0000 H   0  0  0  0  0  0  0  0  0  0  0  0
    0.0000    0.0000    0.0000 H   0  0  0  0  0  0  0  0  0  0  0  0
    0.0000    0.0000    0.0000 H   0  0  0  0  0  0  0  0  0  0  0  0
    0.0000    0.0000    0.0000 H   0  0  0  0  0  0  0  0  0  0  0  0
    0.0000    0.0000    0.0000 H   0  0  0  0  0  0  0  0  0  0  0  0
    0.0000    0.0000    0.0000 H   0  0  0  0  0  0  0  0  0  0  0  0
    0.0000    0.0000    0.0000 H   0  0  0  0  0  0  0  0  0  0  0  0
    0.0000    0.0000    0.0000 H   0  0  0  0  0  0  0  0  0  0  0  0
    0.0000    0.0000    0.0000 H   0  0  0  0  0  0  0  0  0  0  0  0
   12.4535    5.2841    9.0932 C   0  0  2  0  0  0  0  0  0  0  0  0
   12.8104    4.4559    7.9186 C   0  0  0  0  0  0  0  0  0  0  0  0
   12.2661    5.8765    7.7770 C   0  0  1  0  0  0  0  0  0  0  0  0
   11.0071    5.9152    7.0831 N   0  0  0  0  0  0  0  0  0  0  0  0
   11.5998    4.9431    9.7371 H   0  0  0  0  0  0  0  0  0  0  0  0
   12.1545    3.6056    7.7154 H   0  0  0  0  0  0  0  0  0  0  0  0
   13.8529    4.3509    7.5668 H   0  0  0  0  0  0  0  0  0  0  0  0
   12.9703    6.6758    7.4606 H   0  0  0  0  0  0  0  0  0  0  0  0
   11.2135    5.6156    6.0822 H   0  0  0  0  0  0  0  0  0  0  0  0
   10.5836    6.8470    7.0070 H   0  0  0  0  0  0  0  0  0  0  0  0
  1  3  2  0
  1  4  1  0
  1  5  1  0
  2  4  1  0
  2  6  1  0
  4  9  1  0
  4 15  1  0
  5  6  1  0
  5  8  1  0
  6  7  2  3
  9 10  2  0
  9 14  1  0
 10 11  1  0
 11 12  2  0
 12 13  1  0
 13 14  2  0
 15 16  2  0
 15 20  1  0
 16 17  1  0
 17 18  2  0
 18 19  1  0
 19 20  2  0
  2 21  1  0
  7 22  1  0
  8 23  1  0
  8 24  1  0
  8 25  1  0
 10 26  1  0
 11 27  1  0
 12 28  1  0
 13 29  1  0
 14 30  1  0
 16 31  1  0
 17 32  1  0
 19 33  1  0
 20 34  1  0
 35 36  1  0
 36 37  1  0
 37 38  1  0
 37 35  1  0
 35 39  1  6
 36 40  1  0
 36 41  1  0
 37 42  1  1
 38 43  1  0
 38 44  1  0
 18 35  1  0
M  END
>  <attachment_point>  (392) 
32

>  <score>  (392) 
<NA>

$$$$
4djw
     RDKit          3D

 50 53  0  0  0  0  0  0  0  0999 V2000
   22.4950   11.8750   22.5810 C   0  0  0  0  0  0  0  0  0  0  0  0
   22.5380    9.4930   22.4640 N   0  0  0  0  0  0  0  0  0  0  0  0
   22.3600   13.0630   22.3480 O   0  0  0  0  0  0  0  0  0  0  0  0
   22.3390   10.6680   21.5610 C   0  0  0  0  0  0  0  0  0  0  0  0
   22.7860   11.3350   23.8120 N   0  0  0  0  0  0  0  0  0  0  0  0
   22.7800    9.9140   23.7010 C   0  0  0  0  0  0  0  0  0  0  0  0
   22.9970    9.1110   24.7490 N   0  0  0  0  0  0  0  0  0  0  0  0
   23.0220   12.1410   25.0180 C   0  0  0  0  0  0  0  0  0  0  0  0
   20.9020   10.6270   21.0050 C   0  0  0  0  0  0  0  0  0  0  0  0
   20.2720    9.4140   20.7470 C   0  0  0  0  0  0  0  0  0  0  0  0
   18.9690    9.3760   20.2600 C   0  0  0  0  0  0  0  0  0  0  0  0
   18.2800   10.5440   20.0210 C   0  0  0  0  0  0  0  0  0  0  0  0
   18.8920   11.7530   20.2590 C   0  0  0  0  0  0  0  0  0  0  0  0
   20.1950   11.7970   20.7440 C   0  0  0  0  0  0  0  0  0  0  0  0
   23.4880   10.6920   20.5300 C   0  0  0  0  0  0  0  0  0  0  0  0
   23.2110   10.7890   19.1730 C   0  0  0  0  0  0  0  0  0  0  0  0
   24.2350   10.8650   18.2430 C   0  0  0  0  0  0  0  0  0  0  0  0
   25.5500   10.8410   18.6560 C   0  0  0  0  0  0  0  0  0  0  0  0
   25.8710   10.7460   20.0070 C   0  0  0  0  0  0  0  0  0  0  0  0
   24.8260   10.6610   20.9430 C   0  0  0  0  0  0  0  0  0  0  0  0
    0.0000    0.0000    0.0000 H   0  0  0  0  0  0  0  0  0  0  0  0
    0.0000    0.0000    0.0000 H   0  0  0  0  0  0  0  0  0  0  0  0
    0.0000    0.0000    0.0000 H   0  0  0  0  0  0  0  0  0  0  0  0
    0.0000    0.0000    0.0000 H   0  0  0  0  0  0  0  0  0  0  0  0
    0.0000    0.0000    0.0000 H   0  0  0  0  0  0  0  0  0  0  0  0
    0.0000    0.0000    0.0000 H   0  0  0  0  0  0  0  0  0  0  0  0
    0.0000    0.0000    0.0000 H   0  0  0  0  0  0  0  0  0  0  0  0
    0.0000    0.0000    0.0000 H   0  0  0  0  0  0  0  0  0  0  0  0
    0.0000    0.0000    0.0000 H   0  0  0  0  0  0  0  0  0  0  0  0
    0.0000    0.0000    0.0000 H   0  0  0  0  0  0  0  0  0  0  0  0
    0.0000    0.0000    0.0000 H   0  0  0  0  0  0  0  0  0  0  0  0
    0.0000    0.0000    0.0000 H   0  0  0  0  0  0  0  0  0  0  0  0
    0.0000    0.0000    0.0000 H   0  0  0  0  0  0  0  0  0  0  0  0
    0.0000    0.0000    0.0000 H   0  0  0  0  0  0  0  0  0  0  0  0
   12.4564    5.2853    9.0954 N   0  0  0  0  0  0  0  0  0  0  0  0
   12.1035    3.9092    9.0402 C   0  0  0  0  0  0  0  0  0  0  0  0
   11.0479    3.4694    8.2680 C   0  0  0  0  0  0  0  0  0  0  0  0
   10.6876    2.1376    8.1996 C   0  0  0  0  0  0  0  0  0  0  0  0
   11.3738    1.1727    8.9082 C   0  0  0  0  0  0  0  0  0  0  0  0
   10.9970   -0.2722    8.8454 C   0  0  0  0  0  0  0  0  0  0  0  0
   12.4284    1.6144    9.6794 C   0  0  0  0  0  0  0  0  0  0  0  0
   12.7896    2.9440    9.7488 C   0  0  0  0  0  0  0  0  0  0  0  0
   11.9648    6.0358    8.5778 H   0  0  0  0  0  0  0  0  0  0  0  0
   10.4997    4.2378    7.7023 H   0  0  0  0  0  0  0  0  0  0  0  0
    9.8607    1.8029    7.5930 H   0  0  0  0  0  0  0  0  0  0  0  0
   10.4545   -0.4503    7.9049 H   0  0  0  0  0  0  0  0  0  0  0  0
   11.8584   -0.9320    9.0119 H   0  0  0  0  0  0  0  0  0  0  0  0
   10.2589   -0.4972    9.6715 H   0  0  0  0  0  0  0  0  0  0  0  0
   12.9634    0.8408   10.2353 H   0  0  0  0  0  0  0  0  0  0  0  0
   13.6336    3.2603   10.3721 H   0  0  0  0  0  0  0  0  0  0  0  0
  1  3  2  0
  1  4  1  0
  1  5  1  0
  2  4  1  0
  2  6  1  0
  4  9  1  0
  4 15  1  0
  5  6  1  0
  5  8  1  0
  6  7  2  3
  9 10  2  0
  9 14  1  0
 10 11  1  0
 11 12  2  0
 12 13  1  0
 13 14  2  0
 15 16  2  0
 15 20  1  0
 16 17  1  0
 17 18  2  0
 18 19  1  0
 19 20  2  0
  2 21  1  0
  7 22  1  0
  8 23  1  0
  8 24  1  0
  8 25  1  0
 10 26  1  0
 11 27  1  0
 12 28  1  0
 13 29  1  0
 14 30  1  0
 16 31  1  0
 17 32  1  0
 19 33  1  0
 20 34  1  0
 35 36  1  0
 36 37  2  0
 37 38  1  0
 38 39  2  0
 39 40  1  0
 39 41  1  0
 41 42  2  0
 42 36  1  0
 35 43  1  0
 37 44  1  0
 38 45  1  0
 40 46  1  0
 40 47  1  0
 40 48  1  0
 41 49  1  0
 42 50  1  0
 18 35  1  0
M  END
>  <attachment_point>  (393) 
32

>  <score>  (393) 
<NA>

$$$$
4djw
     RDKit          3D

 43 46  0  0  0  0  0  0  0  0999 V2000
   22.4950   11.8750   22.5810 C   0  0  0  0  0  0  0  0  0  0  0  0
   22.5380    9.4930   22.4640 N   0  0  0  0  0  0  0  0  0  0  0  0
   22.3600   13.0630   22.3480 O   0  0  0  0  0  0  0  0  0  0  0  0
   22.3390   10.6680   21.5610 C   0  0  0  0  0  0  0  0  0  0  0  0
   22.7860   11.3350   23.8120 N   0  0  0  0  0  0  0  0  0  0  0  0
   22.7800    9.9140   23.7010 C   0  0  0  0  0  0  0  0  0  0  0  0
   22.9970    9.1110   24.7490 N   0  0  0  0  0  0  0  0  0  0  0  0
   23.0220   12.1410   25.0180 C   0  0  0  0  0  0  0  0  0  0  0  0
   20.9020   10.6270   21.0050 C   0  0  0  0  0  0  0  0  0  0  0  0
   20.2720    9.4140   20.7470 C   0  0  0  0  0  0  0  0  0  0  0  0
   18.9690    9.3760   20.2600 C   0  0  0  0  0  0  0  0  0  0  0  0
   18.2800   10.5440   20.0210 C   0  0  0  0  0  0  0  0  0  0  0  0
   18.8920   11.7530   20.2590 C   0  0  0  0  0  0  0  0  0  0  0  0
   20.1950   11.7970   20.7440 C   0  0  0  0  0  0  0  0  0  0  0  0
   23.4880   10.6920   20.5300 C   0  0  0  0  0  0  0  0  0  0  0  0
   23.2110   10.7890   19.1730 C   0  0  0  0  0  0  0  0  0  0  0  0
   24.2350   10.8650   18.2430 C   0  0  0  0  0  0  0  0  0  0  0  0
   25.5500   10.8410   18.6560 C   0  0  0  0  0  0  0  0  0  0  0  0
   25.8710   10.7460   20.0070 C   0  0  0  0  0  0  0  0  0  0  0  0
   24.8260   10.6610   20.9430 C   0  0  0  0  0  0  0  0  0  0  0  0
    0.0000    0.0000    0.0000 H   0  0  0  0  0  0  0  0  0  0  0  0
    0.0000    0.0000    0.0000 H   0  0  0  0  0  0  0  0  0  0  0  0
    0.0000    0.0000    0.0000 H   0  0  0  0  0  0  0  0  0  0  0  0
    0.0000    0.0000    0.0000 H   0  0  0  0  0  0  0  0  0  0  0  0
    0.0000    0.0000    0.0000 H   0  0  0  0  0  0  0  0  0  0  0  0
    0.0000    0.0000    0.0000 H   0  0  0  0  0  0  0  0  0  0  0  0
    0.0000    0.0000    0.0000 H   0  0  0  0  0  0  0  0  0  0  0  0
    0.0000    0.0000    0.0000 H   0  0  0  0  0  0  0  0  0  0  0  0
    0.0000    0.0000    0.0000 H   0  0  0  0  0  0  0  0  0  0  0  0
    0.0000    0.0000    0.0000 H   0  0  0  0  0  0  0  0  0  0  0  0
    0.0000    0.0000    0.0000 H   0  0  0  0  0  0  0  0  0  0  0  0
    0.0000    0.0000    0.0000 H   0  0  0  0  0  0  0  0  0  0  0  0
    0.0000    0.0000    0.0000 H   0  0  0  0  0  0  0  0  0  0  0  0
    0.0000    0.0000    0.0000 H   0  0  0  0  0  0  0  0  0  0  0  0
   12.3921    5.2580    9.0484 C   0  0  0  0  0  0  0  0  0  0  0  0
   12.1571    5.6217    7.7799 C   0  0  0  0  0  0  0  0  0  0  0  0
   10.9955    4.9261    7.4123 C   0  0  0  0  0  0  0  0  0  0  0  0
   10.6125    4.1859    8.5008 C   0  0  0  0  0  0  0  0  0  0  0  0
   11.5125    4.4257    9.4941 N   0  0  0  0  0  0  0  0  0  0  0  0
   12.6621    6.2809    7.0946 H   0  0  0  0  0  0  0  0  0  0  0  0
   10.5234    4.9820    6.4609 H   0  0  0  0  0  0  0  0  0  0  0  0
    9.7433    3.5143    8.5836 H   0  0  0  0  0  0  0  0  0  0  0  0
   11.4633    3.9820   10.4591 H   0  0  0  0  0  0  0  0  0  0  0  0
  1  3  2  0
  1  4  1  0
  1  5  1  0
  2  4  1  0
  2  6  1  0
  4  9  1  0
  4 15  1  0
  5  6  1  0
  5  8  1  0
  6  7  2  3
  9 10  2  0
  9 14  1  0
 10 11  1  0
 11 12  2  0
 12 13  1  0
 13 14  2  0
 15 16  2  0
 15 20  1  0
 16 17  1  0
 17 18  2  0
 18 19  1  0
 19 20  2  0
  2 21  1  0
  7 22  1  0
  8 23  1  0
  8 24  1  0
  8 25  1  0
 10 26  1  0
 11 27  1  0
 12 28  1  0
 13 29  1  0
 14 30  1  0
 16 31  1  0
 17 32  1  0
 19 33  1  0
 20 34  1  0
 35 36  2  0
 36 37  1  0
 37 38  2  0
 38 39  1  0
 39 35  1  0
 36 40  1  0
 37 41  1  0
 38 42  1  0
 39 43  1  0
 18 35  1  0
M  END
>  <attachment_point>  (394) 
32

>  <score>  (394) 
<NA>

$$$$
4djw
     RDKit          3D

 49 52  0  0  0  0  0  0  0  0999 V2000
   22.4950   11.8750   22.5810 C   0  0  0  0  0  0  0  0  0  0  0  0
   22.5380    9.4930   22.4640 N   0  0  0  0  0  0  0  0  0  0  0  0
   22.3600   13.0630   22.3480 O   0  0  0  0  0  0  0  0  0  0  0  0
   22.3390   10.6680   21.5610 C   0  0  0  0  0  0  0  0  0  0  0  0
   22.7860   11.3350   23.8120 N   0  0  0  0  0  0  0  0  0  0  0  0
   22.7800    9.9140   23.7010 C   0  0  0  0  0  0  0  0  0  0  0  0
   22.9970    9.1110   24.7490 N   0  0  0  0  0  0  0  0  0  0  0  0
   23.0220   12.1410   25.0180 C   0  0  0  0  0  0  0  0  0  0  0  0
   20.9020   10.6270   21.0050 C   0  0  0  0  0  0  0  0  0  0  0  0
   20.2720    9.4140   20.7470 C   0  0  0  0  0  0  0  0  0  0  0  0
   18.9690    9.3760   20.2600 C   0  0  0  0  0  0  0  0  0  0  0  0
   18.2800   10.5440   20.0210 C   0  0  0  0  0  0  0  0  0  0  0  0
   18.8920   11.7530   20.2590 C   0  0  0  0  0  0  0  0  0  0  0  0
   20.1950   11.7970   20.7440 C   0  0  0  0  0  0  0  0  0  0  0  0
   23.4880   10.6920   20.5300 C   0  0  0  0  0  0  0  0  0  0  0  0
   23.2110   10.7890   19.1730 C   0  0  0  0  0  0  0  0  0  0  0  0
   24.2350   10.8650   18.2430 C   0  0  0  0  0  0  0  0  0  0  0  0
   25.5500   10.8410   18.6560 C   0  0  0  0  0  0  0  0  0  0  0  0
   25.8710   10.7460   20.0070 C   0  0  0  0  0  0  0  0  0  0  0  0
   24.8260   10.6610   20.9430 C   0  0  0  0  0  0  0  0  0  0  0  0
    0.0000    0.0000    0.0000 H   0  0  0  0  0  0  0  0  0  0  0  0
    0.0000    0.0000    0.0000 H   0  0  0  0  0  0  0  0  0  0  0  0
    0.0000    0.0000    0.0000 H   0  0  0  0  0  0  0  0  0  0  0  0
    0.0000    0.0000    0.0000 H   0  0  0  0  0  0  0  0  0  0  0  0
    0.0000    0.0000    0.0000 H   0  0  0  0  0  0  0  0  0  0  0  0
    0.0000    0.0000    0.0000 H   0  0  0  0  0  0  0  0  0  0  0  0
    0.0000    0.0000    0.0000 H   0  0  0  0  0  0  0  0  0  0  0  0
    0.0000    0.0000    0.0000 H   0  0  0  0  0  0  0  0  0  0  0  0
    0.0000    0.0000    0.0000 H   0  0  0  0  0  0  0  0  0  0  0  0
    0.0000    0.0000    0.0000 H   0  0  0  0  0  0  0  0  0  0  0  0
    0.0000    0.0000    0.0000 H   0  0  0  0  0  0  0  0  0  0  0  0
    0.0000    0.0000    0.0000 H   0  0  0  0  0  0  0  0  0  0  0  0
    0.0000    0.0000    0.0000 H   0  0  0  0  0  0  0  0  0  0  0  0
    0.0000    0.0000    0.0000 H   0  0  0  0  0  0  0  0  0  0  0  0
   12.4626    5.2880    9.0999 C   0  0  0  0  0  0  0  0  0  0  0  0
   11.1539    5.4441    9.5111 C   0  0  0  0  0  0  0  0  0  0  0  0
   10.1163    4.9886    8.7243 C   0  0  0  0  0  0  0  0  0  0  0  0
   10.3873    4.3680    7.5093 C   0  0  0  0  0  0  0  0  0  0  0  0
   11.6793    4.2071    7.0905 C   0  0  0  0  0  0  0  0  0  0  0  0
   11.9208    3.5927    5.8898 O   0  0  0  0  0  0  0  0  0  0  0  0
   12.1018    2.1829    5.7820 C   0  0  0  0  0  0  0  0  0  0  0  0
   10.9216    1.6030    6.2543 F   0  0  0  0  0  0  0  0  0  0  0  0
   12.3188    1.8503    4.4603 F   0  0  0  0  0  0  0  0  0  0  0  0
   13.1775    1.8160    6.5550 F   0  0  0  0  0  0  0  0  0  0  0  0
   12.7081    4.6587    7.8705 C   0  0  0  0  0  0  0  0  0  0  0  0
   10.9771    5.9396   10.4779 H   0  0  0  0  0  0  0  0  0  0  0  0
    9.0894    5.1290    9.0814 H   0  0  0  0  0  0  0  0  0  0  0  0
    9.5893    4.0055    6.8808 H   0  0  0  0  0  0  0  0  0  0  0  0
   13.7209    4.5220    7.5217 H   0  0  0  0  0  0  0  0  0  0  0  0
  1  3  2  0
  1  4  1  0
  1  5  1  0
  2  4  1  0
  2  6  1  0
  4  9  1  0
  4 15  1  0
  5  6  1  0
  5  8  1  0
  6  7  2  3
  9 10  2  0
  9 14  1  0
 10 11  1  0
 11 12  2  0
 12 13  1  0
 13 14  2  0
 15 16  2  0
 15 20  1  0
 16 17  1  0
 17 18  2  0
 18 19  1  0
 19 20  2  0
  2 21  1  0
  7 22  1  0
  8 23  1  0
  8 24  1  0
  8 25  1  0
 10 26  1  0
 11 27  1  0
 12 28  1  0
 13 29  1  0
 14 30  1  0
 16 31  1  0
 17 32  1  0
 19 33  1  0
 20 34  1  0
 35 36  2  0
 36 37  1  0
 37 38  2  0
 38 39  1  0
 39 40  1  0
 40 41  1  0
 41 42  1  0
 41 43  1  0
 41 44  1  0
 39 45  2  0
 45 35  1  0
 36 46  1  0
 37 47  1  0
 38 48  1  0
 45 49  1  0
 18 35  1  0
M  END
>  <attachment_point>  (395) 
32

>  <score>  (395) 
<NA>

$$$$
4djw
     RDKit          3D

 53 56  0  0  0  0  0  0  0  0999 V2000
   22.4950   11.8750   22.5810 C   0  0  0  0  0  0  0  0  0  0  0  0
   22.5380    9.4930   22.4640 N   0  0  0  0  0  0  0  0  0  0  0  0
   22.3600   13.0630   22.3480 O   0  0  0  0  0  0  0  0  0  0  0  0
   22.3390   10.6680   21.5610 C   0  0  0  0  0  0  0  0  0  0  0  0
   22.7860   11.3350   23.8120 N   0  0  0  0  0  0  0  0  0  0  0  0
   22.7800    9.9140   23.7010 C   0  0  0  0  0  0  0  0  0  0  0  0
   22.9970    9.1110   24.7490 N   0  0  0  0  0  0  0  0  0  0  0  0
   23.0220   12.1410   25.0180 C   0  0  0  0  0  0  0  0  0  0  0  0
   20.9020   10.6270   21.0050 C   0  0  0  0  0  0  0  0  0  0  0  0
   20.2720    9.4140   20.7470 C   0  0  0  0  0  0  0  0  0  0  0  0
   18.9690    9.3760   20.2600 C   0  0  0  0  0  0  0  0  0  0  0  0
   18.2800   10.5440   20.0210 C   0  0  0  0  0  0  0  0  0  0  0  0
   18.8920   11.7530   20.2590 C   0  0  0  0  0  0  0  0  0  0  0  0
   20.1950   11.7970   20.7440 C   0  0  0  0  0  0  0  0  0  0  0  0
   23.4880   10.6920   20.5300 C   0  0  0  0  0  0  0  0  0  0  0  0
   23.2110   10.7890   19.1730 C   0  0  0  0  0  0  0  0  0  0  0  0
   24.2350   10.8650   18.2430 C   0  0  0  0  0  0  0  0  0  0  0  0
   25.5500   10.8410   18.6560 C   0  0  0  0  0  0  0  0  0  0  0  0
   25.8710   10.7460   20.0070 C   0  0  0  0  0  0  0  0  0  0  0  0
   24.8260   10.6610   20.9430 C   0  0  0  0  0  0  0  0  0  0  0  0
    0.0000    0.0000    0.0000 H   0  0  0  0  0  0  0  0  0  0  0  0
    0.0000    0.0000    0.0000 H   0  0  0  0  0  0  0  0  0  0  0  0
    0.0000    0.0000    0.0000 H   0  0  0  0  0  0  0  0  0  0  0  0
    0.0000    0.0000    0.0000 H   0  0  0  0  0  0  0  0  0  0  0  0
    0.0000    0.0000    0.0000 H   0  0  0  0  0  0  0  0  0  0  0  0
    0.0000    0.0000    0.0000 H   0  0  0  0  0  0  0  0  0  0  0  0
    0.0000    0.0000    0.0000 H   0  0  0  0  0  0  0  0  0  0  0  0
    0.0000    0.0000    0.0000 H   0  0  0  0  0  0  0  0  0  0  0  0
    0.0000    0.0000    0.0000 H   0  0  0  0  0  0  0  0  0  0  0  0
    0.0000    0.0000    0.0000 H   0  0  0  0  0  0  0  0  0  0  0  0
    0.0000    0.0000    0.0000 H   0  0  0  0  0  0  0  0  0  0  0  0
    0.0000    0.0000    0.0000 H   0  0  0  0  0  0  0  0  0  0  0  0
    0.0000    0.0000    0.0000 H   0  0  0  0  0  0  0  0  0  0  0  0
    0.0000    0.0000    0.0000 H   0  0  0  0  0  0  0  0  0  0  0  0
   12.4444    5.2802    9.0866 C   0  0  0  0  0  0  0  0  0  0  0  0
   11.3207    6.0447    8.9993 C   0  0  0  0  0  0  0  0  0  0  0  0
   10.2730    5.5915    8.2292 C   0  0  0  0  0  0  0  0  0  0  0  0
    9.1226    6.3452    8.1228 O   0  0  0  0  0  0  0  0  0  0  0  0
    9.0229    7.5603    8.7928 C   0  0  0  0  0  0  0  0  0  0  0  0
   10.3533    4.3889    7.5572 C   0  0  0  0  0  0  0  0  0  0  0  0
   11.4827    3.6001    7.6329 C   0  0  0  0  0  0  0  0  0  0  0  0
   11.5150    2.4020    6.9407 O   0  0  0  0  0  0  0  0  0  0  0  0
   12.5785    1.5039    6.9197 C   0  0  0  0  0  0  0  0  0  0  0  0
   12.5264    4.0605    8.4054 C   0  0  0  0  0  0  0  0  0  0  0  0
   11.2853    6.9876    9.5394 H   0  0  0  0  0  0  0  0  0  0  0  0
    9.0991    7.3962    9.8985 H   0  0  0  0  0  0  0  0  0  0  0  0
    8.0992    8.1110    8.6110 H   0  0  0  0  0  0  0  0  0  0  0  0
    9.8966    8.1983    8.5099 H   0  0  0  0  0  0  0  0  0  0  0  0
    9.5155    4.0321    6.9448 H   0  0  0  0  0  0  0  0  0  0  0  0
   12.3988    0.7530    7.7408 H   0  0  0  0  0  0  0  0  0  0  0  0
   13.5692    1.9559    7.1519 H   0  0  0  0  0  0  0  0  0  0  0  0
   12.6211    0.9031    5.9751 H   0  0  0  0  0  0  0  0  0  0  0  0
   13.4211    3.4798    8.4916 H   0  0  0  0  0  0  0  0  0  0  0  0
  1  3  2  0
  1  4  1  0
  1  5  1  0
  2  4  1  0
  2  6  1  0
  4  9  1  0
  4 15  1  0
  5  6  1  0
  5  8  1  0
  6  7  2  3
  9 10  2  0
  9 14  1  0
 10 11  1  0
 11 12  2  0
 12 13  1  0
 13 14  2  0
 15 16  2  0
 15 20  1  0
 16 17  1  0
 17 18  2  0
 18 19  1  0
 19 20  2  0
  2 21  1  0
  7 22  1  0
  8 23  1  0
  8 24  1  0
  8 25  1  0
 10 26  1  0
 11 27  1  0
 12 28  1  0
 13 29  1  0
 14 30  1  0
 16 31  1  0
 17 32  1  0
 19 33  1  0
 20 34  1  0
 35 36  2  0
 36 37  1  0
 37 38  1  0
 38 39  1  0
 37 40  2  0
 40 41  1  0
 41 42  1  0
 42 43  1  0
 41 44  2  0
 44 35  1  0
 36 45  1  0
 39 46  1  0
 39 47  1  0
 39 48  1  0
 40 49  1  0
 43 50  1  0
 43 51  1  0
 43 52  1  0
 44 53  1  0
 18 35  1  0
M  END
>  <attachment_point>  (396) 
32

>  <score>  (396) 
<NA>

$$$$
4djw
     RDKit          3D

 56 59  0  0  0  0  0  0  0  0999 V2000
   22.4950   11.8750   22.5810 C   0  0  0  0  0  0  0  0  0  0  0  0
   22.5380    9.4930   22.4640 N   0  0  0  0  0  0  0  0  0  0  0  0
   22.3600   13.0630   22.3480 O   0  0  0  0  0  0  0  0  0  0  0  0
   22.3390   10.6680   21.5610 C   0  0  0  0  0  0  0  0  0  0  0  0
   22.7860   11.3350   23.8120 N   0  0  0  0  0  0  0  0  0  0  0  0
   22.7800    9.9140   23.7010 C   0  0  0  0  0  0  0  0  0  0  0  0
   22.9970    9.1110   24.7490 N   0  0  0  0  0  0  0  0  0  0  0  0
   23.0220   12.1410   25.0180 C   0  0  0  0  0  0  0  0  0  0  0  0
   20.9020   10.6270   21.0050 C   0  0  0  0  0  0  0  0  0  0  0  0
   20.2720    9.4140   20.7470 C   0  0  0  0  0  0  0  0  0  0  0  0
   18.9690    9.3760   20.2600 C   0  0  0  0  0  0  0  0  0  0  0  0
   18.2800   10.5440   20.0210 C   0  0  0  0  0  0  0  0  0  0  0  0
   18.8920   11.7530   20.2590 C   0  0  0  0  0  0  0  0  0  0  0  0
   20.1950   11.7970   20.7440 C   0  0  0  0  0  0  0  0  0  0  0  0
   23.4880   10.6920   20.5300 C   0  0  0  0  0  0  0  0  0  0  0  0
   23.2110   10.7890   19.1730 C   0  0  0  0  0  0  0  0  0  0  0  0
   24.2350   10.8650   18.2430 C   0  0  0  0  0  0  0  0  0  0  0  0
   25.5500   10.8410   18.6560 C   0  0  0  0  0  0  0  0  0  0  0  0
   25.8710   10.7460   20.0070 C   0  0  0  0  0  0  0  0  0  0  0  0
   24.8260   10.6610   20.9430 C   0  0  0  0  0  0  0  0  0  0  0  0
    0.0000    0.0000    0.0000 H   0  0  0  0  0  0  0  0  0  0  0  0
    0.0000    0.0000    0.0000 H   0  0  0  0  0  0  0  0  0  0  0  0
    0.0000    0.0000    0.0000 H   0  0  0  0  0  0  0  0  0  0  0  0
    0.0000    0.0000    0.0000 H   0  0  0  0  0  0  0  0  0  0  0  0
    0.0000    0.0000    0.0000 H   0  0  0  0  0  0  0  0  0  0  0  0
    0.0000    0.0000    0.0000 H   0  0  0  0  0  0  0  0  0  0  0  0
    0.0000    0.0000    0.0000 H   0  0  0  0  0  0  0  0  0  0  0  0
    0.0000    0.0000    0.0000 H   0  0  0  0  0  0  0  0  0  0  0  0
    0.0000    0.0000    0.0000 H   0  0  0  0  0  0  0  0  0  0  0  0
    0.0000    0.0000    0.0000 H   0  0  0  0  0  0  0  0  0  0  0  0
    0.0000    0.0000    0.0000 H   0  0  0  0  0  0  0  0  0  0  0  0
    0.0000    0.0000    0.0000 H   0  0  0  0  0  0  0  0  0  0  0  0
    0.0000    0.0000    0.0000 H   0  0  0  0  0  0  0  0  0  0  0  0
    0.0000    0.0000    0.0000 H   0  0  0  0  0  0  0  0  0  0  0  0
   12.4507    5.2829    9.0912 C   0  0  0  0  0  0  0  0  0  0  0  0
   11.2961    4.8481    9.8157 N   0  0  0  0  0  0  0  0  0  0  0  0
   10.6976    5.8479   10.6312 C   0  0  0  0  0  0  0  0  0  0  0  0
   11.3907    3.5565   10.3888 C   0  0  0  0  0  0  0  0  0  0  0  0
   11.6205    2.4973    9.3810 C   0  0  0  0  0  0  0  0  0  0  0  0
   12.9088    2.1038    9.0116 C   0  0  0  0  0  0  0  0  0  0  0  0
   13.1014    1.1296    8.0823 C   0  0  0  0  0  0  0  0  0  0  0  0
   12.0410    0.4998    7.4756 C   0  0  0  0  0  0  0  0  0  0  0  0
   10.7765    0.8993    7.8507 C   0  0  0  0  0  0  0  0  0  0  0  0
   10.5318    1.8815    8.7875 C   0  0  0  0  0  0  0  0  0  0  0  0
   12.8302    4.5123    8.4147 H   0  0  0  0  0  0  0  0  0  0  0  0
   12.1797    6.1831    8.4644 H   0  0  0  0  0  0  0  0  0  0  0  0
   10.0559    6.5269   10.0482 H   0  0  0  0  0  0  0  0  0  0  0  0
   11.4157    6.4176   11.2552 H   0  0  0  0  0  0  0  0  0  0  0  0
   10.0123    5.3344   11.3608 H   0  0  0  0  0  0  0  0  0  0  0  0
   12.1689    3.4392   11.1618 H   0  0  0  0  0  0  0  0  0  0  0  0
   10.4081    3.3300   10.8784 H   0  0  0  0  0  0  0  0  0  0  0  0
   13.7735    2.5863    9.4782 H   0  0  0  0  0  0  0  0  0  0  0  0
   14.0953    0.8154    7.7872 H   0  0  0  0  0  0  0  0  0  0  0  0
   12.2025   -0.2831    6.7287 H   0  0  0  0  0  0  0  0  0  0  0  0
    9.9244    0.4069    7.3764 H   0  0  0  0  0  0  0  0  0  0  0  0
    9.5448    2.1910    9.0782 H   0  0  0  0  0  0  0  0  0  0  0  0
  1  3  2  0
  1  4  1  0
  1  5  1  0
  2  4  1  0
  2  6  1  0
  4  9  1  0
  4 15  1  0
  5  6  1  0
  5  8  1  0
  6  7  2  3
  9 10  2  0
  9 14  1  0
 10 11  1  0
 11 12  2  0
 12 13  1  0
 13 14  2  0
 15 16  2  0
 15 20  1  0
 16 17  1  0
 17 18  2  0
 18 19  1  0
 19 20  2  0
  2 21  1  0
  7 22  1  0
  8 23  1  0
  8 24  1  0
  8 25  1  0
 10 26  1  0
 11 27  1  0
 12 28  1  0
 13 29  1  0
 14 30  1  0
 16 31  1  0
 17 32  1  0
 19 33  1  0
 20 34  1  0
 35 36  1  0
 36 37  1  0
 36 38  1  0
 38 39  1  0
 39 40  2  0
 40 41  1  0
 41 42  2  0
 42 43  1  0
 43 44  2  0
 44 39  1  0
 35 45  1  0
 35 46  1  0
 37 47  1  0
 37 48  1  0
 37 49  1  0
 38 50  1  0
 38 51  1  0
 40 52  1  0
 41 53  1  0
 42 54  1  0
 43 55  1  0
 44 56  1  0
 18 35  1  0
M  END
>  <attachment_point>  (397) 
32

>  <score>  (397) 
<NA>

$$$$
4djw
     RDKit          3D

 50 53  0  0  0  0  0  0  0  0999 V2000
   22.4950   11.8750   22.5810 C   0  0  0  0  0  0  0  0  0  0  0  0
   22.5380    9.4930   22.4640 N   0  0  0  0  0  0  0  0  0  0  0  0
   22.3600   13.0630   22.3480 O   0  0  0  0  0  0  0  0  0  0  0  0
   22.3390   10.6680   21.5610 C   0  0  0  0  0  0  0  0  0  0  0  0
   22.7860   11.3350   23.8120 N   0  0  0  0  0  0  0  0  0  0  0  0
   22.7800    9.9140   23.7010 C   0  0  0  0  0  0  0  0  0  0  0  0
   22.9970    9.1110   24.7490 N   0  0  0  0  0  0  0  0  0  0  0  0
   23.0220   12.1410   25.0180 C   0  0  0  0  0  0  0  0  0  0  0  0
   20.9020   10.6270   21.0050 C   0  0  0  0  0  0  0  0  0  0  0  0
   20.2720    9.4140   20.7470 C   0  0  0  0  0  0  0  0  0  0  0  0
   18.9690    9.3760   20.2600 C   0  0  0  0  0  0  0  0  0  0  0  0
   18.2800   10.5440   20.0210 C   0  0  0  0  0  0  0  0  0  0  0  0
   18.8920   11.7530   20.2590 C   0  0  0  0  0  0  0  0  0  0  0  0
   20.1950   11.7970   20.7440 C   0  0  0  0  0  0  0  0  0  0  0  0
   23.4880   10.6920   20.5300 C   0  0  0  0  0  0  0  0  0  0  0  0
   23.2110   10.7890   19.1730 C   0  0  0  0  0  0  0  0  0  0  0  0
   24.2350   10.8650   18.2430 C   0  0  0  0  0  0  0  0  0  0  0  0
   25.5500   10.8410   18.6560 C   0  0  0  0  0  0  0  0  0  0  0  0
   25.8710   10.7460   20.0070 C   0  0  0  0  0  0  0  0  0  0  0  0
   24.8260   10.6610   20.9430 C   0  0  0  0  0  0  0  0  0  0  0  0
    0.0000    0.0000    0.0000 H   0  0  0  0  0  0  0  0  0  0  0  0
    0.0000    0.0000    0.0000 H   0  0  0  0  0  0  0  0  0  0  0  0
    0.0000    0.0000    0.0000 H   0  0  0  0  0  0  0  0  0  0  0  0
    0.0000    0.0000    0.0000 H   0  0  0  0  0  0  0  0  0  0  0  0
    0.0000    0.0000    0.0000 H   0  0  0  0  0  0  0  0  0  0  0  0
    0.0000    0.0000    0.0000 H   0  0  0  0  0  0  0  0  0  0  0  0
    0.0000    0.0000    0.0000 H   0  0  0  0  0  0  0  0  0  0  0  0
    0.0000    0.0000    0.0000 H   0  0  0  0  0  0  0  0  0  0  0  0
    0.0000    0.0000    0.0000 H   0  0  0  0  0  0  0  0  0  0  0  0
    0.0000    0.0000    0.0000 H   0  0  0  0  0  0  0  0  0  0  0  0
    0.0000    0.0000    0.0000 H   0  0  0  0  0  0  0  0  0  0  0  0
    0.0000    0.0000    0.0000 H   0  0  0  0  0  0  0  0  0  0  0  0
    0.0000    0.0000    0.0000 H   0  0  0  0  0  0  0  0  0  0  0  0
    0.0000    0.0000    0.0000 H   0  0  0  0  0  0  0  0  0  0  0  0
   12.4241    5.2716    9.0718 C   0  0  0  0  0  0  0  0  0  0  0  0
   12.2754    3.8492    9.3482 N   0  0  0  0  0  0  0  0  0  0  0  0
   13.3644    2.9837    9.0734 C   0  0  0  0  0  0  0  0  0  0  0  0
   14.5431    3.4565    8.5576 C   0  0  0  0  0  0  0  0  0  0  0  0
   15.5958    2.6131    8.2932 C   0  0  0  0  0  0  0  0  0  0  0  0
   15.5097    1.2698    8.5337 C   0  0  0  0  0  0  0  0  0  0  0  0
   14.3228    0.7986    9.0523 C   0  0  0  0  0  0  0  0  0  0  0  0
   13.2589    1.6379    9.3217 C   0  0  0  0  0  0  0  0  0  0  0  0
   12.6907    5.4193    8.0065 H   0  0  0  0  0  0  0  0  0  0  0  0
   11.5365    5.8395    9.3891 H   0  0  0  0  0  0  0  0  0  0  0  0
   11.3655    3.5258    9.7399 H   0  0  0  0  0  0  0  0  0  0  0  0
   14.6730    4.5272    8.3429 H   0  0  0  0  0  0  0  0  0  0  0  0
   16.5184    3.0274    7.8825 H   0  0  0  0  0  0  0  0  0  0  0  0
   16.3471    0.5926    8.3243 H   0  0  0  0  0  0  0  0  0  0  0  0
   14.2477   -0.2812    9.2479 H   0  0  0  0  0  0  0  0  0  0  0  0
   12.3306    1.2099    9.7365 H   0  0  0  0  0  0  0  0  0  0  0  0
  1  3  2  0
  1  4  1  0
  1  5  1  0
  2  4  1  0
  2  6  1  0
  4  9  1  0
  4 15  1  0
  5  6  1  0
  5  8  1  0
  6  7  2  3
  9 10  2  0
  9 14  1  0
 10 11  1  0
 11 12  2  0
 12 13  1  0
 13 14  2  0
 15 16  2  0
 15 20  1  0
 16 17  1  0
 17 18  2  0
 18 19  1  0
 19 20  2  0
  2 21  1  0
  7 22  1  0
  8 23  1  0
  8 24  1  0
  8 25  1  0
 10 26  1  0
 11 27  1  0
 12 28  1  0
 13 29  1  0
 14 30  1  0
 16 31  1  0
 17 32  1  0
 19 33  1  0
 20 34  1  0
 35 36  1  0
 36 37  1  0
 37 38  2  0
 38 39  1  0
 39 40  2  0
 40 41  1  0
 41 42  2  0
 42 37  1  0
 35 43  1  0
 35 44  1  0
 36 45  1  0
 38 46  1  0
 39 47  1  0
 40 48  1  0
 41 49  1  0
 42 50  1  0
 18 35  1  0
M  END
>  <attachment_point>  (398) 
32

>  <score>  (398) 
<NA>

$$$$
4djw
     RDKit          3D

 54 58  0  0  0  0  0  0  0  0999 V2000
   22.4950   11.8750   22.5810 C   0  0  0  0  0  0  0  0  0  0  0  0
   22.5380    9.4930   22.4640 N   0  0  0  0  0  0  0  0  0  0  0  0
   22.3600   13.0630   22.3480 O   0  0  0  0  0  0  0  0  0  0  0  0
   22.3390   10.6680   21.5610 C   0  0  0  0  0  0  0  0  0  0  0  0
   22.7860   11.3350   23.8120 N   0  0  0  0  0  0  0  0  0  0  0  0
   22.7800    9.9140   23.7010 C   0  0  0  0  0  0  0  0  0  0  0  0
   22.9970    9.1110   24.7490 N   0  0  0  0  0  0  0  0  0  0  0  0
   23.0220   12.1410   25.0180 C   0  0  0  0  0  0  0  0  0  0  0  0
   20.9020   10.6270   21.0050 C   0  0  0  0  0  0  0  0  0  0  0  0
   20.2720    9.4140   20.7470 C   0  0  0  0  0  0  0  0  0  0  0  0
   18.9690    9.3760   20.2600 C   0  0  0  0  0  0  0  0  0  0  0  0
   18.2800   10.5440   20.0210 C   0  0  0  0  0  0  0  0  0  0  0  0
   18.8920   11.7530   20.2590 C   0  0  0  0  0  0  0  0  0  0  0  0
   20.1950   11.7970   20.7440 C   0  0  0  0  0  0  0  0  0  0  0  0
   23.4880   10.6920   20.5300 C   0  0  0  0  0  0  0  0  0  0  0  0
   23.2110   10.7890   19.1730 C   0  0  0  0  0  0  0  0  0  0  0  0
   24.2350   10.8650   18.2430 C   0  0  0  0  0  0  0  0  0  0  0  0
   25.5500   10.8410   18.6560 C   0  0  0  0  0  0  0  0  0  0  0  0
   25.8710   10.7460   20.0070 C   0  0  0  0  0  0  0  0  0  0  0  0
   24.8260   10.6610   20.9430 C   0  0  0  0  0  0  0  0  0  0  0  0
    0.0000    0.0000    0.0000 H   0  0  0  0  0  0  0  0  0  0  0  0
    0.0000    0.0000    0.0000 H   0  0  0  0  0  0  0  0  0  0  0  0
    0.0000    0.0000    0.0000 H   0  0  0  0  0  0  0  0  0  0  0  0
    0.0000    0.0000    0.0000 H   0  0  0  0  0  0  0  0  0  0  0  0
    0.0000    0.0000    0.0000 H   0  0  0  0  0  0  0  0  0  0  0  0
    0.0000    0.0000    0.0000 H   0  0  0  0  0  0  0  0  0  0  0  0
    0.0000    0.0000    0.0000 H   0  0  0  0  0  0  0  0  0  0  0  0
    0.0000    0.0000    0.0000 H   0  0  0  0  0  0  0  0  0  0  0  0
    0.0000    0.0000    0.0000 H   0  0  0  0  0  0  0  0  0  0  0  0
    0.0000    0.0000    0.0000 H   0  0  0  0  0  0  0  0  0  0  0  0
    0.0000    0.0000    0.0000 H   0  0  0  0  0  0  0  0  0  0  0  0
    0.0000    0.0000    0.0000 H   0  0  0  0  0  0  0  0  0  0  0  0
    0.0000    0.0000    0.0000 H   0  0  0  0  0  0  0  0  0  0  0  0
    0.0000    0.0000    0.0000 H   0  0  0  0  0  0  0  0  0  0  0  0
   12.4624    5.2878    9.0997 C   0  0  0  0  0  0  0  0  0  0  0  0
   12.9649    4.3182    8.0897 C   0  0  0  0  0  0  0  0  0  0  0  0
   13.3812    4.7577    6.8500 C   0  0  0  0  0  0  0  0  0  0  0  0
   13.8555    3.8920    5.8805 C   0  0  0  0  0  0  0  0  0  0  0  0
   13.9293    2.5351    6.1258 C   0  0  0  0  0  0  0  0  0  0  0  0
   14.3984    1.6370    5.1803 C   0  0  0  0  0  0  0  0  0  0  0  0
   14.4684    0.2777    5.4364 C   0  0  0  0  0  0  0  0  0  0  0  0
   14.0562   -0.1709    6.6682 C   0  0  0  0  0  0  0  0  0  0  0  0
   13.5925    0.7254    7.5995 C   0  0  0  0  0  0  0  0  0  0  0  0
   13.5136    2.0921    7.3647 C   0  0  0  0  0  0  0  0  0  0  0  0
   13.0386    2.9631    8.3345 C   0  0  0  0  0  0  0  0  0  0  0  0
   12.0362    6.1649    8.5511 H   0  0  0  0  0  0  0  0  0  0  0  0
   11.6388    4.8340    9.6891 H   0  0  0  0  0  0  0  0  0  0  0  0
   13.3145    5.8364    6.6761 H   0  0  0  0  0  0  0  0  0  0  0  0
   14.1718    4.2824    4.9206 H   0  0  0  0  0  0  0  0  0  0  0  0
   14.7249    2.0099    4.1992 H   0  0  0  0  0  0  0  0  0  0  0  0
   14.8450   -0.3525    4.6478 H   0  0  0  0  0  0  0  0  0  0  0  0
   14.1062   -1.2307    6.8796 H   0  0  0  0  0  0  0  0  0  0  0  0
   13.2608    0.4005    8.5791 H   0  0  0  0  0  0  0  0  0  0  0  0
   12.7234    2.5652    9.2941 H   0  0  0  0  0  0  0  0  0  0  0  0
  1  3  2  0
  1  4  1  0
  1  5  1  0
  2  4  1  0
  2  6  1  0
  4  9  1  0
  4 15  1  0
  5  6  1  0
  5  8  1  0
  6  7  2  3
  9 10  2  0
  9 14  1  0
 10 11  1  0
 11 12  2  0
 12 13  1  0
 13 14  2  0
 15 16  2  0
 15 20  1  0
 16 17  1  0
 17 18  2  0
 18 19  1  0
 19 20  2  0
  2 21  1  0
  7 22  1  0
  8 23  1  0
  8 24  1  0
  8 25  1  0
 10 26  1  0
 11 27  1  0
 12 28  1  0
 13 29  1  0
 14 30  1  0
 16 31  1  0
 17 32  1  0
 19 33  1  0
 20 34  1  0
 35 36  1  0
 36 37  2  0
 37 38  1  0
 38 39  2  0
 39 40  1  0
 40 41  2  0
 41 42  1  0
 42 43  2  0
 43 44  1  0
 44 45  2  0
 45 36  1  0
 44 39  1  0
 35 46  1  0
 35 47  1  0
 37 48  1  0
 38 49  1  0
 40 50  1  0
 41 51  1  0
 42 52  1  0
 43 53  1  0
 45 54  1  0
 18 35  1  0
M  END
>  <attachment_point>  (399) 
32

>  <score>  (399) 
<NA>

$$$$
4djw
     RDKit          3D

 49 53  0  0  0  0  0  0  0  0999 V2000
   22.4950   11.8750   22.5810 C   0  0  0  0  0  0  0  0  0  0  0  0
   22.5380    9.4930   22.4640 N   0  0  0  0  0  0  0  0  0  0  0  0
   22.3600   13.0630   22.3480 O   0  0  0  0  0  0  0  0  0  0  0  0
   22.3390   10.6680   21.5610 C   0  0  0  0  0  0  0  0  0  0  0  0
   22.7860   11.3350   23.8120 N   0  0  0  0  0  0  0  0  0  0  0  0
   22.7800    9.9140   23.7010 C   0  0  0  0  0  0  0  0  0  0  0  0
   22.9970    9.1110   24.7490 N   0  0  0  0  0  0  0  0  0  0  0  0
   23.0220   12.1410   25.0180 C   0  0  0  0  0  0  0  0  0  0  0  0
   20.9020   10.6270   21.0050 C   0  0  0  0  0  0  0  0  0  0  0  0
   20.2720    9.4140   20.7470 C   0  0  0  0  0  0  0  0  0  0  0  0
   18.9690    9.3760   20.2600 C   0  0  0  0  0  0  0  0  0  0  0  0
   18.2800   10.5440   20.0210 C   0  0  0  0  0  0  0  0  0  0  0  0
   18.8920   11.7530   20.2590 C   0  0  0  0  0  0  0  0  0  0  0  0
   20.1950   11.7970   20.7440 C   0  0  0  0  0  0  0  0  0  0  0  0
   23.4880   10.6920   20.5300 C   0  0  0  0  0  0  0  0  0  0  0  0
   23.2110   10.7890   19.1730 C   0  0  0  0  0  0  0  0  0  0  0  0
   24.2350   10.8650   18.2430 C   0  0  0  0  0  0  0  0  0  0  0  0
   25.5500   10.8410   18.6560 C   0  0  0  0  0  0  0  0  0  0  0  0
   25.8710   10.7460   20.0070 C   0  0  0  0  0  0  0  0  0  0  0  0
   24.8260   10.6610   20.9430 C   0  0  0  0  0  0  0  0  0  0  0  0
    0.0000    0.0000    0.0000 H   0  0  0  0  0  0  0  0  0  0  0  0
    0.0000    0.0000    0.0000 H   0  0  0  0  0  0  0  0  0  0  0  0
    0.0000    0.0000    0.0000 H   0  0  0  0  0  0  0  0  0  0  0  0
    0.0000    0.0000    0.0000 H   0  0  0  0  0  0  0  0  0  0  0  0
    0.0000    0.0000    0.0000 H   0  0  0  0  0  0  0  0  0  0  0  0
    0.0000    0.0000    0.0000 H   0  0  0  0  0  0  0  0  0  0  0  0
    0.0000    0.0000    0.0000 H   0  0  0  0  0  0  0  0  0  0  0  0
    0.0000    0.0000    0.0000 H   0  0  0  0  0  0  0  0  0  0  0  0
    0.0000    0.0000    0.0000 H   0  0  0  0  0  0  0  0  0  0  0  0
    0.0000    0.0000    0.0000 H   0  0  0  0  0  0  0  0  0  0  0  0
    0.0000    0.0000    0.0000 H   0  0  0  0  0  0  0  0  0  0  0  0
    0.0000    0.0000    0.0000 H   0  0  0  0  0  0  0  0  0  0  0  0
    0.0000    0.0000    0.0000 H   0  0  0  0  0  0  0  0  0  0  0  0
    0.0000    0.0000    0.0000 H   0  0  0  0  0  0  0  0  0  0  0  0
   12.4007    5.2617    9.0547 C   0  0  0  0  0  0  0  0  0  0  0  0
   11.1394    5.4547    9.5294 C   0  0  0  0  0  0  0  0  0  0  0  0
   10.0860    4.9954    8.7366 C   0  0  0  0  0  0  0  0  0  0  0  0
   10.3132    4.3749    7.5287 C   0  0  0  0  0  0  0  0  0  0  0  0
    9.4833    3.8373    6.5675 C   0  0  0  0  0  0  0  0  0  0  0  0
   10.2649    3.3383    5.5464 C   0  0  0  0  0  0  0  0  0  0  0  0
   11.5377    3.5804    5.9046 N   0  0  0  0  0  0  0  0  0  0  0  0
   11.5992    4.2014    7.0896 C   0  0  0  0  0  0  0  0  0  0  0  0
   12.6733    4.6580    7.8752 C   0  0  0  0  0  0  0  0  0  0  0  0
   10.9497    5.9400   10.4749 H   0  0  0  0  0  0  0  0  0  0  0  0
    9.0624    5.1169    9.0545 H   0  0  0  0  0  0  0  0  0  0  0  0
    8.3887    3.8174    6.6203 H   0  0  0  0  0  0  0  0  0  0  0  0
    9.9470    2.8463    4.6302 H   0  0  0  0  0  0  0  0  0  0  0  0
   12.3802    3.3159    5.3279 H   0  0  0  0  0  0  0  0  0  0  0  0
   13.6726    4.5117    7.5121 H   0  0  0  0  0  0  0  0  0  0  0  0
  1  3  2  0
  1  4  1  0
  1  5  1  0
  2  4  1  0
  2  6  1  0
  4  9  1  0
  4 15  1  0
  5  6  1  0
  5  8  1  0
  6  7  2  3
  9 10  2  0
  9 14  1  0
 10 11  1  0
 11 12  2  0
 12 13  1  0
 13 14  2  0
 15 16  2  0
 15 20  1  0
 16 17  1  0
 17 18  2  0
 18 19  1  0
 19 20  2  0
  2 21  1  0
  7 22  1  0
  8 23  1  0
  8 24  1  0
  8 25  1  0
 10 26  1  0
 11 27  1  0
 12 28  1  0
 13 29  1  0
 14 30  1  0
 16 31  1  0
 17 32  1  0
 19 33  1  0
 20 34  1  0
 35 36  2  0
 36 37  1  0
 37 38  2  0
 38 39  1  0
 39 40  2  0
 40 41  1  0
 41 42  1  0
 42 43  2  0
 43 35  1  0
 42 38  1  0
 36 44  1  0
 37 45  1  0
 39 46  1  0
 40 47  1  0
 41 48  1  0
 43 49  1  0
 18 35  1  0
M  END
>  <attachment_point>  (400) 
32

>  <score>  (400) 
<NA>

$$$$
4djw
     RDKit          3D

 42 44  0  0  0  0  0  0  0  0999 V2000
   22.4950   11.8750   22.5810 C   0  0  0  0  0  0  0  0  0  0  0  0
   22.5380    9.4930   22.4640 N   0  0  0  0  0  0  0  0  0  0  0  0
   22.3600   13.0630   22.3480 O   0  0  0  0  0  0  0  0  0  0  0  0
   22.3390   10.6680   21.5610 C   0  0  0  0  0  0  0  0  0  0  0  0
   22.7860   11.3350   23.8120 N   0  0  0  0  0  0  0  0  0  0  0  0
   22.7800    9.9140   23.7010 C   0  0  0  0  0  0  0  0  0  0  0  0
   22.9970    9.1110   24.7490 N   0  0  0  0  0  0  0  0  0  0  0  0
   23.0220   12.1410   25.0180 C   0  0  0  0  0  0  0  0  0  0  0  0
   20.9020   10.6270   21.0050 C   0  0  0  0  0  0  0  0  0  0  0  0
   20.2720    9.4140   20.7470 C   0  0  0  0  0  0  0  0  0  0  0  0
   18.9690    9.3760   20.2600 C   0  0  0  0  0  0  0  0  0  0  0  0
   18.2800   10.5440   20.0210 C   0  0  0  0  0  0  0  0  0  0  0  0
   18.8920   11.7530   20.2590 C   0  0  0  0  0  0  0  0  0  0  0  0
   20.1950   11.7970   20.7440 C   0  0  0  0  0  0  0  0  0  0  0  0
   23.4880   10.6920   20.5300 C   0  0  0  0  0  0  0  0  0  0  0  0
   23.2110   10.7890   19.1730 C   0  0  0  0  0  0  0  0  0  0  0  0
   24.2350   10.8650   18.2430 C   0  0  0  0  0  0  0  0  0  0  0  0
   25.5500   10.8410   18.6560 C   0  0  0  0  0  0  0  0  0  0  0  0
   25.8710   10.7460   20.0070 C   0  0  0  0  0  0  0  0  0  0  0  0
   24.8260   10.6610   20.9430 C   0  0  0  0  0  0  0  0  0  0  0  0
    0.0000    0.0000    0.0000 H   0  0  0  0  0  0  0  0  0  0  0  0
    0.0000    0.0000    0.0000 H   0  0  0  0  0  0  0  0  0  0  0  0
    0.0000    0.0000    0.0000 H   0  0  0  0  0  0  0  0  0  0  0  0
    0.0000    0.0000    0.0000 H   0  0  0  0  0  0  0  0  0  0  0  0
    0.0000    0.0000    0.0000 H   0  0  0  0  0  0  0  0  0  0  0  0
    0.0000    0.0000    0.0000 H   0  0  0  0  0  0  0  0  0  0  0  0
    0.0000    0.0000    0.0000 H   0  0  0  0  0  0  0  0  0  0  0  0
    0.0000    0.0000    0.0000 H   0  0  0  0  0  0  0  0  0  0  0  0
    0.0000    0.0000    0.0000 H   0  0  0  0  0  0  0  0  0  0  0  0
    0.0000    0.0000    0.0000 H   0  0  0  0  0  0  0  0  0  0  0  0
    0.0000    0.0000    0.0000 H   0  0  0  0  0  0  0  0  0  0  0  0
    0.0000    0.0000    0.0000 H   0  0  0  0  0  0  0  0  0  0  0  0
    0.0000    0.0000    0.0000 H   0  0  0  0  0  0  0  0  0  0  0  0
    0.0000    0.0000    0.0000 H   0  0  0  0  0  0  0  0  0  0  0  0
   12.4404    5.2785    9.0837 C   0  0  0  0  0  0  0  0  0  0  0  0
   12.3981    4.0363    8.6379 C   0  0  0  0  0  0  0  0  0  0  0  0
   11.2739    3.5909    7.8276 C   0  0  0  0  0  0  0  0  0  0  0  0
   10.3593    4.3857    7.5606 O   0  0  0  0  0  0  0  0  0  0  0  0
   11.1847    2.2947    7.3361 O   0  0  0  0  0  0  0  0  0  0  0  0
   11.6388    5.9449    8.8393 H   0  0  0  0  0  0  0  0  0  0  0  0
   13.2266    3.3846    8.9029 H   0  0  0  0  0  0  0  0  0  0  0  0
   10.2772    1.8046    7.3810 H   0  0  0  0  0  0  0  0  0  0  0  0
  1  3  2  0
  1  4  1  0
  1  5  1  0
  2  4  1  0
  2  6  1  0
  4  9  1  0
  4 15  1  0
  5  6  1  0
  5  8  1  0
  6  7  2  3
  9 10  2  0
  9 14  1  0
 10 11  1  0
 11 12  2  0
 12 13  1  0
 13 14  2  0
 15 16  2  0
 15 20  1  0
 16 17  1  0
 17 18  2  0
 18 19  1  0
 19 20  2  0
  2 21  1  0
  7 22  1  0
  8 23  1  0
  8 24  1  0
  8 25  1  0
 10 26  1  0
 11 27  1  0
 12 28  1  0
 13 29  1  0
 14 30  1  0
 16 31  1  0
 17 32  1  0
 19 33  1  0
 20 34  1  0
 35 36  2  3
 36 37  1  0
 37 38  2  0
 37 39  1  0
 35 40  1  0
 36 41  1  0
 39 42  1  0
 18 35  1  0
M  END
>  <attachment_point>  (401) 
32

>  <score>  (401) 
<NA>

$$$$
4djw
     RDKit          3D

 46 49  0  0  0  0  0  0  0  0999 V2000
   22.4950   11.8750   22.5810 C   0  0  0  0  0  0  0  0  0  0  0  0
   22.5380    9.4930   22.4640 N   0  0  0  0  0  0  0  0  0  0  0  0
   22.3600   13.0630   22.3480 O   0  0  0  0  0  0  0  0  0  0  0  0
   22.3390   10.6680   21.5610 C   0  0  0  0  0  0  0  0  0  0  0  0
   22.7860   11.3350   23.8120 N   0  0  0  0  0  0  0  0  0  0  0  0
   22.7800    9.9140   23.7010 C   0  0  0  0  0  0  0  0  0  0  0  0
   22.9970    9.1110   24.7490 N   0  0  0  0  0  0  0  0  0  0  0  0
   23.0220   12.1410   25.0180 C   0  0  0  0  0  0  0  0  0  0  0  0
   20.9020   10.6270   21.0050 C   0  0  0  0  0  0  0  0  0  0  0  0
   20.2720    9.4140   20.7470 C   0  0  0  0  0  0  0  0  0  0  0  0
   18.9690    9.3760   20.2600 C   0  0  0  0  0  0  0  0  0  0  0  0
   18.2800   10.5440   20.0210 C   0  0  0  0  0  0  0  0  0  0  0  0
   18.8920   11.7530   20.2590 C   0  0  0  0  0  0  0  0  0  0  0  0
   20.1950   11.7970   20.7440 C   0  0  0  0  0  0  0  0  0  0  0  0
   23.4880   10.6920   20.5300 C   0  0  0  0  0  0  0  0  0  0  0  0
   23.2110   10.7890   19.1730 C   0  0  0  0  0  0  0  0  0  0  0  0
   24.2350   10.8650   18.2430 C   0  0  0  0  0  0  0  0  0  0  0  0
   25.5500   10.8410   18.6560 C   0  0  0  0  0  0  0  0  0  0  0  0
   25.8710   10.7460   20.0070 C   0  0  0  0  0  0  0  0  0  0  0  0
   24.8260   10.6610   20.9430 C   0  0  0  0  0  0  0  0  0  0  0  0
    0.0000    0.0000    0.0000 H   0  0  0  0  0  0  0  0  0  0  0  0
    0.0000    0.0000    0.0000 H   0  0  0  0  0  0  0  0  0  0  0  0
    0.0000    0.0000    0.0000 H   0  0  0  0  0  0  0  0  0  0  0  0
    0.0000    0.0000    0.0000 H   0  0  0  0  0  0  0  0  0  0  0  0
    0.0000    0.0000    0.0000 H   0  0  0  0  0  0  0  0  0  0  0  0
    0.0000    0.0000    0.0000 H   0  0  0  0  0  0  0  0  0  0  0  0
    0.0000    0.0000    0.0000 H   0  0  0  0  0  0  0  0  0  0  0  0
    0.0000    0.0000    0.0000 H   0  0  0  0  0  0  0  0  0  0  0  0
    0.0000    0.0000    0.0000 H   0  0  0  0  0  0  0  0  0  0  0  0
    0.0000    0.0000    0.0000 H   0  0  0  0  0  0  0  0  0  0  0  0
    0.0000    0.0000    0.0000 H   0  0  0  0  0  0  0  0  0  0  0  0
    0.0000    0.0000    0.0000 H   0  0  0  0  0  0  0  0  0  0  0  0
    0.0000    0.0000    0.0000 H   0  0  0  0  0  0  0  0  0  0  0  0
    0.0000    0.0000    0.0000 H   0  0  0  0  0  0  0  0  0  0  0  0
   12.4612    5.2873    9.0989 C   0  0  1  0  0  0  0  0  0  0  0  0
   11.7997    6.5478    8.5226 C   0  0  0  0  0  0  0  0  0  0  0  0
   12.9930    7.0346    7.6853 C   0  0  0  0  0  0  0  0  0  0  0  0
   13.4987    5.7092    7.1613 C   0  0  0  0  0  0  0  0  0  0  0  0
   12.9742    4.7157    7.9407 O   0  0  0  0  0  0  0  0  0  0  0  0
   11.7402    4.6356    9.5900 H   0  0  0  0  0  0  0  0  0  0  0  0
   11.5134    7.2580    9.2912 H   0  0  0  0  0  0  0  0  0  0  0  0
   11.0037    6.2645    7.8143 H   0  0  0  0  0  0  0  0  0  0  0  0
   13.7624    7.4445    8.3798 H   0  0  0  0  0  0  0  0  0  0  0  0
   12.6866    7.7321    6.9012 H   0  0  0  0  0  0  0  0  0  0  0  0
   14.6067    5.6790    7.0739 H   0  0  0  0  0  0  0  0  0  0  0  0
   13.1303    5.6487    6.0947 H   0  0  0  0  0  0  0  0  0  0  0  0
  1  3  2  0
  1  4  1  0
  1  5  1  0
  2  4  1  0
  2  6  1  0
  4  9  1  0
  4 15  1  0
  5  6  1  0
  5  8  1  0
  6  7  2  3
  9 10  2  0
  9 14  1  0
 10 11  1  0
 11 12  2  0
 12 13  1  0
 13 14  2  0
 15 16  2  0
 15 20  1  0
 16 17  1  0
 17 18  2  0
 18 19  1  0
 19 20  2  0
  2 21  1  0
  7 22  1  0
  8 23  1  0
  8 24  1  0
  8 25  1  0
 10 26  1  0
 11 27  1  0
 12 28  1  0
 13 29  1  0
 14 30  1  0
 16 31  1  0
 17 32  1  0
 19 33  1  0
 20 34  1  0
 35 36  1  0
 36 37  1  0
 37 38  1  0
 38 39  1  0
 39 35  1  0
 35 40  1  6
 36 41  1  0
 36 42  1  0
 37 43  1  0
 37 44  1  0
 38 45  1  0
 38 46  1  0
 18 35  1  0
M  END
>  <attachment_point>  (402) 
32

>  <score>  (402) 
<NA>

$$$$
4djw
     RDKit          3D

 47 49  0  0  0  0  0  0  0  0999 V2000
   22.4950   11.8750   22.5810 C   0  0  0  0  0  0  0  0  0  0  0  0
   22.5380    9.4930   22.4640 N   0  0  0  0  0  0  0  0  0  0  0  0
   22.3600   13.0630   22.3480 O   0  0  0  0  0  0  0  0  0  0  0  0
   22.3390   10.6680   21.5610 C   0  0  0  0  0  0  0  0  0  0  0  0
   22.7860   11.3350   23.8120 N   0  0  0  0  0  0  0  0  0  0  0  0
   22.7800    9.9140   23.7010 C   0  0  0  0  0  0  0  0  0  0  0  0
   22.9970    9.1110   24.7490 N   0  0  0  0  0  0  0  0  0  0  0  0
   23.0220   12.1410   25.0180 C   0  0  0  0  0  0  0  0  0  0  0  0
   20.9020   10.6270   21.0050 C   0  0  0  0  0  0  0  0  0  0  0  0
   20.2720    9.4140   20.7470 C   0  0  0  0  0  0  0  0  0  0  0  0
   18.9690    9.3760   20.2600 C   0  0  0  0  0  0  0  0  0  0  0  0
   18.2800   10.5440   20.0210 C   0  0  0  0  0  0  0  0  0  0  0  0
   18.8920   11.7530   20.2590 C   0  0  0  0  0  0  0  0  0  0  0  0
   20.1950   11.7970   20.7440 C   0  0  0  0  0  0  0  0  0  0  0  0
   23.4880   10.6920   20.5300 C   0  0  0  0  0  0  0  0  0  0  0  0
   23.2110   10.7890   19.1730 C   0  0  0  0  0  0  0  0  0  0  0  0
   24.2350   10.8650   18.2430 C   0  0  0  0  0  0  0  0  0  0  0  0
   25.5500   10.8410   18.6560 C   0  0  0  0  0  0  0  0  0  0  0  0
   25.8710   10.7460   20.0070 C   0  0  0  0  0  0  0  0  0  0  0  0
   24.8260   10.6610   20.9430 C   0  0  0  0  0  0  0  0  0  0  0  0
    0.0000    0.0000    0.0000 H   0  0  0  0  0  0  0  0  0  0  0  0
    0.0000    0.0000    0.0000 H   0  0  0  0  0  0  0  0  0  0  0  0
    0.0000    0.0000    0.0000 H   0  0  0  0  0  0  0  0  0  0  0  0
    0.0000    0.0000    0.0000 H   0  0  0  0  0  0  0  0  0  0  0  0
    0.0000    0.0000    0.0000 H   0  0  0  0  0  0  0  0  0  0  0  0
    0.0000    0.0000    0.0000 H   0  0  0  0  0  0  0  0  0  0  0  0
    0.0000    0.0000    0.0000 H   0  0  0  0  0  0  0  0  0  0  0  0
    0.0000    0.0000    0.0000 H   0  0  0  0  0  0  0  0  0  0  0  0
    0.0000    0.0000    0.0000 H   0  0  0  0  0  0  0  0  0  0  0  0
    0.0000    0.0000    0.0000 H   0  0  0  0  0  0  0  0  0  0  0  0
    0.0000    0.0000    0.0000 H   0  0  0  0  0  0  0  0  0  0  0  0
    0.0000    0.0000    0.0000 H   0  0  0  0  0  0  0  0  0  0  0  0
    0.0000    0.0000    0.0000 H   0  0  0  0  0  0  0  0  0  0  0  0
    0.0000    0.0000    0.0000 H   0  0  0  0  0  0  0  0  0  0  0  0
   12.2918    5.2155    8.9752 C   0  0  0  0  0  0  0  0  0  0  0  0
   13.2507    4.6614    8.1014 N   0  0  0  0  0  0  0  0  0  0  0  0
   14.0320    3.6757    8.8225 C   0  0  0  0  0  0  0  0  0  0  0  0
   15.0858    3.0331    7.9522 C   0  0  0  0  0  0  0  0  0  0  0  0
   15.9598    4.0235    7.4777 O   0  0  0  0  0  0  0  0  0  0  0  0
   12.0283    4.6711    9.8592 H   0  0  0  0  0  0  0  0  0  0  0  0
   12.0562    6.2536    8.8954 H   0  0  0  0  0  0  0  0  0  0  0  0
   12.8125    4.2905    7.2363 H   0  0  0  0  0  0  0  0  0  0  0  0
   14.5716    4.2248    9.6253 H   0  0  0  0  0  0  0  0  0  0  0  0
   13.3679    2.8789    9.2136 H   0  0  0  0  0  0  0  0  0  0  0  0
   14.6144    2.5080    7.0832 H   0  0  0  0  0  0  0  0  0  0  0  0
   15.6544    2.3365    8.5999 H   0  0  0  0  0  0  0  0  0  0  0  0
   16.8822    3.8545    7.8060 H   0  0  0  0  0  0  0  0  0  0  0  0
  1  3  2  0
  1  4  1  0
  1  5  1  0
  2  4  1  0
  2  6  1  0
  4  9  1  0
  4 15  1  0
  5  6  1  0
  5  8  1  0
  6  7  2  3
  9 10  2  0
  9 14  1  0
 10 11  1  0
 11 12  2  0
 12 13  1  0
 13 14  2  0
 15 16  2  0
 15 20  1  0
 16 17  1  0
 17 18  2  0
 18 19  1  0
 19 20  2  0
  2 21  1  0
  7 22  1  0
  8 23  1  0
  8 24  1  0
  8 25  1  0
 10 26  1  0
 11 27  1  0
 12 28  1  0
 13 29  1  0
 14 30  1  0
 16 31  1  0
 17 32  1  0
 19 33  1  0
 20 34  1  0
 35 36  1  0
 36 37  1  0
 37 38  1  0
 38 39  1  0
 35 40  1  0
 35 41  1  0
 36 42  1  0
 37 43  1  0
 37 44  1  0
 38 45  1  0
 38 46  1  0
 39 47  1  0
 18 35  1  0
M  END
>  <attachment_point>  (403) 
32

>  <score>  (403) 
<NA>

$$$$
4djw
     RDKit          3D

 51 54  0  0  0  0  0  0  0  0999 V2000
   22.4950   11.8750   22.5810 C   0  0  0  0  0  0  0  0  0  0  0  0
   22.5380    9.4930   22.4640 N   0  0  0  0  0  0  0  0  0  0  0  0
   22.3600   13.0630   22.3480 O   0  0  0  0  0  0  0  0  0  0  0  0
   22.3390   10.6680   21.5610 C   0  0  0  0  0  0  0  0  0  0  0  0
   22.7860   11.3350   23.8120 N   0  0  0  0  0  0  0  0  0  0  0  0
   22.7800    9.9140   23.7010 C   0  0  0  0  0  0  0  0  0  0  0  0
   22.9970    9.1110   24.7490 N   0  0  0  0  0  0  0  0  0  0  0  0
   23.0220   12.1410   25.0180 C   0  0  0  0  0  0  0  0  0  0  0  0
   20.9020   10.6270   21.0050 C   0  0  0  0  0  0  0  0  0  0  0  0
   20.2720    9.4140   20.7470 C   0  0  0  0  0  0  0  0  0  0  0  0
   18.9690    9.3760   20.2600 C   0  0  0  0  0  0  0  0  0  0  0  0
   18.2800   10.5440   20.0210 C   0  0  0  0  0  0  0  0  0  0  0  0
   18.8920   11.7530   20.2590 C   0  0  0  0  0  0  0  0  0  0  0  0
   20.1950   11.7970   20.7440 C   0  0  0  0  0  0  0  0  0  0  0  0
   23.4880   10.6920   20.5300 C   0  0  0  0  0  0  0  0  0  0  0  0
   23.2110   10.7890   19.1730 C   0  0  0  0  0  0  0  0  0  0  0  0
   24.2350   10.8650   18.2430 C   0  0  0  0  0  0  0  0  0  0  0  0
   25.5500   10.8410   18.6560 C   0  0  0  0  0  0  0  0  0  0  0  0
   25.8710   10.7460   20.0070 C   0  0  0  0  0  0  0  0  0  0  0  0
   24.8260   10.6610   20.9430 C   0  0  0  0  0  0  0  0  0  0  0  0
    0.0000    0.0000    0.0000 H   0  0  0  0  0  0  0  0  0  0  0  0
    0.0000    0.0000    0.0000 H   0  0  0  0  0  0  0  0  0  0  0  0
    0.0000    0.0000    0.0000 H   0  0  0  0  0  0  0  0  0  0  0  0
    0.0000    0.0000    0.0000 H   0  0  0  0  0  0  0  0  0  0  0  0
    0.0000    0.0000    0.0000 H   0  0  0  0  0  0  0  0  0  0  0  0
    0.0000    0.0000    0.0000 H   0  0  0  0  0  0  0  0  0  0  0  0
    0.0000    0.0000    0.0000 H   0  0  0  0  0  0  0  0  0  0  0  0
    0.0000    0.0000    0.0000 H   0  0  0  0  0  0  0  0  0  0  0  0
    0.0000    0.0000    0.0000 H   0  0  0  0  0  0  0  0  0  0  0  0
    0.0000    0.0000    0.0000 H   0  0  0  0  0  0  0  0  0  0  0  0
    0.0000    0.0000    0.0000 H   0  0  0  0  0  0  0  0  0  0  0  0
    0.0000    0.0000    0.0000 H   0  0  0  0  0  0  0  0  0  0  0  0
    0.0000    0.0000    0.0000 H   0  0  0  0  0  0  0  0  0  0  0  0
    0.0000    0.0000    0.0000 H   0  0  0  0  0  0  0  0  0  0  0  0
   12.3115    5.2238    8.9896 C   0  0  0  0  0  0  0  0  0  0  0  0
   11.6025    6.4798    9.0585 C   0  0  0  0  0  0  0  0  0  0  0  0
   10.8955    6.9277   10.1630 C   0  0  0  0  0  0  0  0  0  0  0  0
   10.7441    6.1883   11.4628 C   0  0  0  0  0  0  0  0  0  0  0  0
   10.3737    8.1290    9.8602 N   0  0  0  0  0  0  0  0  0  0  0  0
   10.7356    8.4199    8.6272 N   0  0  0  0  0  0  0  0  0  0  0  0
   11.4894    7.4305    8.1063 C   0  0  0  0  0  0  0  0  0  0  0  0
   12.0380    7.4566    6.7603 C   0  0  0  0  0  0  0  0  0  0  0  0
   11.8429    8.4207    5.9761 O   0  0  0  0  0  0  0  0  0  0  0  0
   12.8114    6.4097    6.2698 O   0  0  0  0  0  0  0  0  0  0  0  0
   12.9688    5.0417    8.1734 H   0  0  0  0  0  0  0  0  0  0  0  0
   12.0935    4.4666    9.7064 H   0  0  0  0  0  0  0  0  0  0  0  0
    9.6934    6.2975   11.7543 H   0  0  0  0  0  0  0  0  0  0  0  0
   10.9350    5.0926   11.2843 H   0  0  0  0  0  0  0  0  0  0  0  0
   11.4728    6.5326   12.2050 H   0  0  0  0  0  0  0  0  0  0  0  0
   10.4389    9.3227    8.1705 H   0  0  0  0  0  0  0  0  0  0  0  0
   13.4903    6.4973    5.5335 H   0  0  0  0  0  0  0  0  0  0  0  0
  1  3  2  0
  1  4  1  0
  1  5  1  0
  2  4  1  0
  2  6  1  0
  4  9  1  0
  4 15  1  0
  5  6  1  0
  5  8  1  0
  6  7  2  3
  9 10  2  0
  9 14  1  0
 10 11  1  0
 11 12  2  0
 12 13  1  0
 13 14  2  0
 15 16  2  0
 15 20  1  0
 16 17  1  0
 17 18  2  0
 18 19  1  0
 19 20  2  0
  2 21  1  0
  7 22  1  0
  8 23  1  0
  8 24  1  0
  8 25  1  0
 10 26  1  0
 11 27  1  0
 12 28  1  0
 13 29  1  0
 14 30  1  0
 16 31  1  0
 17 32  1  0
 19 33  1  0
 20 34  1  0
 35 36  1  0
 36 37  1  0
 37 38  1  0
 37 39  2  0
 39 40  1  0
 40 41  1  0
 41 42  1  0
 42 43  2  0
 42 44  1  0
 41 36  2  0
 35 45  1  0
 35 46  1  0
 38 47  1  0
 38 48  1  0
 38 49  1  0
 40 50  1  0
 44 51  1  0
 18 35  1  0
M  END
>  <attachment_point>  (404) 
32

>  <score>  (404) 
<NA>

$$$$
4djw
     RDKit          3D

 50 53  0  0  0  0  0  0  0  0999 V2000
   22.4950   11.8750   22.5810 C   0  0  0  0  0  0  0  0  0  0  0  0
   22.5380    9.4930   22.4640 N   0  0  0  0  0  0  0  0  0  0  0  0
   22.3600   13.0630   22.3480 O   0  0  0  0  0  0  0  0  0  0  0  0
   22.3390   10.6680   21.5610 C   0  0  0  0  0  0  0  0  0  0  0  0
   22.7860   11.3350   23.8120 N   0  0  0  0  0  0  0  0  0  0  0  0
   22.7800    9.9140   23.7010 C   0  0  0  0  0  0  0  0  0  0  0  0
   22.9970    9.1110   24.7490 N   0  0  0  0  0  0  0  0  0  0  0  0
   23.0220   12.1410   25.0180 C   0  0  0  0  0  0  0  0  0  0  0  0
   20.9020   10.6270   21.0050 C   0  0  0  0  0  0  0  0  0  0  0  0
   20.2720    9.4140   20.7470 C   0  0  0  0  0  0  0  0  0  0  0  0
   18.9690    9.3760   20.2600 C   0  0  0  0  0  0  0  0  0  0  0  0
   18.2800   10.5440   20.0210 C   0  0  0  0  0  0  0  0  0  0  0  0
   18.8920   11.7530   20.2590 C   0  0  0  0  0  0  0  0  0  0  0  0
   20.1950   11.7970   20.7440 C   0  0  0  0  0  0  0  0  0  0  0  0
   23.4880   10.6920   20.5300 C   0  0  0  0  0  0  0  0  0  0  0  0
   23.2110   10.7890   19.1730 C   0  0  0  0  0  0  0  0  0  0  0  0
   24.2350   10.8650   18.2430 C   0  0  0  0  0  0  0  0  0  0  0  0
   25.5500   10.8410   18.6560 C   0  0  0  0  0  0  0  0  0  0  0  0
   25.8710   10.7460   20.0070 C   0  0  0  0  0  0  0  0  0  0  0  0
   24.8260   10.6610   20.9430 C   0  0  0  0  0  0  0  0  0  0  0  0
    0.0000    0.0000    0.0000 H   0  0  0  0  0  0  0  0  0  0  0  0
    0.0000    0.0000    0.0000 H   0  0  0  0  0  0  0  0  0  0  0  0
    0.0000    0.0000    0.0000 H   0  0  0  0  0  0  0  0  0  0  0  0
    0.0000    0.0000    0.0000 H   0  0  0  0  0  0  0  0  0  0  0  0
    0.0000    0.0000    0.0000 H   0  0  0  0  0  0  0  0  0  0  0  0
    0.0000    0.0000    0.0000 H   0  0  0  0  0  0  0  0  0  0  0  0
    0.0000    0.0000    0.0000 H   0  0  0  0  0  0  0  0  0  0  0  0
    0.0000    0.0000    0.0000 H   0  0  0  0  0  0  0  0  0  0  0  0
    0.0000    0.0000    0.0000 H   0  0  0  0  0  0  0  0  0  0  0  0
    0.0000    0.0000    0.0000 H   0  0  0  0  0  0  0  0  0  0  0  0
    0.0000    0.0000    0.0000 H   0  0  0  0  0  0  0  0  0  0  0  0
    0.0000    0.0000    0.0000 H   0  0  0  0  0  0  0  0  0  0  0  0
    0.0000    0.0000    0.0000 H   0  0  0  0  0  0  0  0  0  0  0  0
    0.0000    0.0000    0.0000 H   0  0  0  0  0  0  0  0  0  0  0  0
   12.4148    5.2677    9.0650 C   0  0  0  0  0  0  0  0  0  0  0  0
   11.5406    4.5639    9.5717 O   0  0  0  0  0  0  0  0  0  0  0  0
   12.4456    5.6943    7.6644 C   0  0  0  0  0  0  0  0  0  0  0  0
   11.4598    5.3247    6.7772 C   0  0  0  0  0  0  0  0  0  0  0  0
   11.5088    5.7378    5.4630 C   0  0  0  0  0  0  0  0  0  0  0  0
   12.5411    6.5366    4.9759 C   0  0  0  0  0  0  0  0  0  0  0  0
   12.5832    6.9773    3.5525 C   0  0  0  0  0  0  0  0  0  0  0  0
   13.5244    6.9058    5.8596 C   0  0  0  0  0  0  0  0  0  0  0  0
   13.4613    6.4851    7.1685 C   0  0  0  0  0  0  0  0  0  0  0  0
   10.6565    4.7099    7.1331 H   0  0  0  0  0  0  0  0  0  0  0  0
   10.7394    5.4537    4.7557 H   0  0  0  0  0  0  0  0  0  0  0  0
   13.2053    7.8813    3.4843 H   0  0  0  0  0  0  0  0  0  0  0  0
   13.1059    6.1929    2.9494 H   0  0  0  0  0  0  0  0  0  0  0  0
   11.5582    7.1119    3.1796 H   0  0  0  0  0  0  0  0  0  0  0  0
   14.3392    7.5304    5.4953 H   0  0  0  0  0  0  0  0  0  0  0  0
   14.2439    6.7851    7.8503 H   0  0  0  0  0  0  0  0  0  0  0  0
  1  3  2  0
  1  4  1  0
  1  5  1  0
  2  4  1  0
  2  6  1  0
  4  9  1  0
  4 15  1  0
  5  6  1  0
  5  8  1  0
  6  7  2  3
  9 10  2  0
  9 14  1  0
 10 11  1  0
 11 12  2  0
 12 13  1  0
 13 14  2  0
 15 16  2  0
 15 20  1  0
 16 17  1  0
 17 18  2  0
 18 19  1  0
 19 20  2  0
  2 21  1  0
  7 22  1  0
  8 23  1  0
  8 24  1  0
  8 25  1  0
 10 26  1  0
 11 27  1  0
 12 28  1  0
 13 29  1  0
 14 30  1  0
 16 31  1  0
 17 32  1  0
 19 33  1  0
 20 34  1  0
 35 36  2  0
 35 37  1  0
 37 38  2  0
 38 39  1  0
 39 40  2  0
 40 41  1  0
 40 42  1  0
 42 43  2  0
 43 37  1  0
 38 44  1  0
 39 45  1  0
 41 46  1  0
 41 47  1  0
 41 48  1  0
 42 49  1  0
 43 50  1  0
 18 35  1  0
M  END
>  <attachment_point>  (405) 
32

>  <score>  (405) 
<NA>

$$$$
4djw
     RDKit          3D

 46 48  0  0  0  0  0  0  0  0999 V2000
   22.4950   11.8750   22.5810 C   0  0  0  0  0  0  0  0  0  0  0  0
   22.5380    9.4930   22.4640 N   0  0  0  0  0  0  0  0  0  0  0  0
   22.3600   13.0630   22.3480 O   0  0  0  0  0  0  0  0  0  0  0  0
   22.3390   10.6680   21.5610 C   0  0  0  0  0  0  0  0  0  0  0  0
   22.7860   11.3350   23.8120 N   0  0  0  0  0  0  0  0  0  0  0  0
   22.7800    9.9140   23.7010 C   0  0  0  0  0  0  0  0  0  0  0  0
   22.9970    9.1110   24.7490 N   0  0  0  0  0  0  0  0  0  0  0  0
   23.0220   12.1410   25.0180 C   0  0  0  0  0  0  0  0  0  0  0  0
   20.9020   10.6270   21.0050 C   0  0  0  0  0  0  0  0  0  0  0  0
   20.2720    9.4140   20.7470 C   0  0  0  0  0  0  0  0  0  0  0  0
   18.9690    9.3760   20.2600 C   0  0  0  0  0  0  0  0  0  0  0  0
   18.2800   10.5440   20.0210 C   0  0  0  0  0  0  0  0  0  0  0  0
   18.8920   11.7530   20.2590 C   0  0  0  0  0  0  0  0  0  0  0  0
   20.1950   11.7970   20.7440 C   0  0  0  0  0  0  0  0  0  0  0  0
   23.4880   10.6920   20.5300 C   0  0  0  0  0  0  0  0  0  0  0  0
   23.2110   10.7890   19.1730 C   0  0  0  0  0  0  0  0  0  0  0  0
   24.2350   10.8650   18.2430 C   0  0  0  0  0  0  0  0  0  0  0  0
   25.5500   10.8410   18.6560 C   0  0  0  0  0  0  0  0  0  0  0  0
   25.8710   10.7460   20.0070 C   0  0  0  0  0  0  0  0  0  0  0  0
   24.8260   10.6610   20.9430 C   0  0  0  0  0  0  0  0  0  0  0  0
    0.0000    0.0000    0.0000 H   0  0  0  0  0  0  0  0  0  0  0  0
    0.0000    0.0000    0.0000 H   0  0  0  0  0  0  0  0  0  0  0  0
    0.0000    0.0000    0.0000 H   0  0  0  0  0  0  0  0  0  0  0  0
    0.0000    0.0000    0.0000 H   0  0  0  0  0  0  0  0  0  0  0  0
    0.0000    0.0000    0.0000 H   0  0  0  0  0  0  0  0  0  0  0  0
    0.0000    0.0000    0.0000 H   0  0  0  0  0  0  0  0  0  0  0  0
    0.0000    0.0000    0.0000 H   0  0  0  0  0  0  0  0  0  0  0  0
    0.0000    0.0000    0.0000 H   0  0  0  0  0  0  0  0  0  0  0  0
    0.0000    0.0000    0.0000 H   0  0  0  0  0  0  0  0  0  0  0  0
    0.0000    0.0000    0.0000 H   0  0  0  0  0  0  0  0  0  0  0  0
    0.0000    0.0000    0.0000 H   0  0  0  0  0  0  0  0  0  0  0  0
    0.0000    0.0000    0.0000 H   0  0  0  0  0  0  0  0  0  0  0  0
    0.0000    0.0000    0.0000 H   0  0  0  0  0  0  0  0  0  0  0  0
    0.0000    0.0000    0.0000 H   0  0  0  0  0  0  0  0  0  0  0  0
   12.4058    5.2639    9.0584 C   0  0  0  0  0  0  0  0  0  0  0  0
   12.6143    3.8541    9.0172 N   0  0  0  0  0  0  0  0  0  0  0  0
   11.6583    3.1171    8.2755 C   0  0  0  0  0  0  0  0  0  0  0  0
   12.0473    1.6412    8.3462 C   0  0  0  0  0  0  0  0  0  0  0  0
   11.5798    5.6046    9.6709 H   0  0  0  0  0  0  0  0  0  0  0  0
   12.6024    5.8035    8.1389 H   0  0  0  0  0  0  0  0  0  0  0  0
   13.5744    3.5339    8.9039 H   0  0  0  0  0  0  0  0  0  0  0  0
   11.7553    3.4148    7.1944 H   0  0  0  0  0  0  0  0  0  0  0  0
   10.6179    3.2647    8.5573 H   0  0  0  0  0  0  0  0  0  0  0  0
   12.6673    1.4764    9.2588 H   0  0  0  0  0  0  0  0  0  0  0  0
   11.1467    0.9993    8.3949 H   0  0  0  0  0  0  0  0  0  0  0  0
   12.6810    1.3798    7.4811 H   0  0  0  0  0  0  0  0  0  0  0  0
  1  3  2  0
  1  4  1  0
  1  5  1  0
  2  4  1  0
  2  6  1  0
  4  9  1  0
  4 15  1  0
  5  6  1  0
  5  8  1  0
  6  7  2  3
  9 10  2  0
  9 14  1  0
 10 11  1  0
 11 12  2  0
 12 13  1  0
 13 14  2  0
 15 16  2  0
 15 20  1  0
 16 17  1  0
 17 18  2  0
 18 19  1  0
 19 20  2  0
  2 21  1  0
  7 22  1  0
  8 23  1  0
  8 24  1  0
  8 25  1  0
 10 26  1  0
 11 27  1  0
 12 28  1  0
 13 29  1  0
 14 30  1  0
 16 31  1  0
 17 32  1  0
 19 33  1  0
 20 34  1  0
 35 36  1  0
 36 37  1  0
 37 38  1  0
 35 39  1  0
 35 40  1  0
 36 41  1  0
 37 42  1  0
 37 43  1  0
 38 44  1  0
 38 45  1  0
 38 46  1  0
 18 35  1  0
M  END
>  <attachment_point>  (406) 
32

>  <score>  (406) 
<NA>

$$$$
4djw
     RDKit          3D

 46 49  0  0  0  0  0  0  0  0999 V2000
   22.4950   11.8750   22.5810 C   0  0  0  0  0  0  0  0  0  0  0  0
   22.5380    9.4930   22.4640 N   0  0  0  0  0  0  0  0  0  0  0  0
   22.3600   13.0630   22.3480 O   0  0  0  0  0  0  0  0  0  0  0  0
   22.3390   10.6680   21.5610 C   0  0  0  0  0  0  0  0  0  0  0  0
   22.7860   11.3350   23.8120 N   0  0  0  0  0  0  0  0  0  0  0  0
   22.7800    9.9140   23.7010 C   0  0  0  0  0  0  0  0  0  0  0  0
   22.9970    9.1110   24.7490 N   0  0  0  0  0  0  0  0  0  0  0  0
   23.0220   12.1410   25.0180 C   0  0  0  0  0  0  0  0  0  0  0  0
   20.9020   10.6270   21.0050 C   0  0  0  0  0  0  0  0  0  0  0  0
   20.2720    9.4140   20.7470 C   0  0  0  0  0  0  0  0  0  0  0  0
   18.9690    9.3760   20.2600 C   0  0  0  0  0  0  0  0  0  0  0  0
   18.2800   10.5440   20.0210 C   0  0  0  0  0  0  0  0  0  0  0  0
   18.8920   11.7530   20.2590 C   0  0  0  0  0  0  0  0  0  0  0  0
   20.1950   11.7970   20.7440 C   0  0  0  0  0  0  0  0  0  0  0  0
   23.4880   10.6920   20.5300 C   0  0  0  0  0  0  0  0  0  0  0  0
   23.2110   10.7890   19.1730 C   0  0  0  0  0  0  0  0  0  0  0  0
   24.2350   10.8650   18.2430 C   0  0  0  0  0  0  0  0  0  0  0  0
   25.5500   10.8410   18.6560 C   0  0  0  0  0  0  0  0  0  0  0  0
   25.8710   10.7460   20.0070 C   0  0  0  0  0  0  0  0  0  0  0  0
   24.8260   10.6610   20.9430 C   0  0  0  0  0  0  0  0  0  0  0  0
    0.0000    0.0000    0.0000 H   0  0  0  0  0  0  0  0  0  0  0  0
    0.0000    0.0000    0.0000 H   0  0  0  0  0  0  0  0  0  0  0  0
    0.0000    0.0000    0.0000 H   0  0  0  0  0  0  0  0  0  0  0  0
    0.0000    0.0000    0.0000 H   0  0  0  0  0  0  0  0  0  0  0  0
    0.0000    0.0000    0.0000 H   0  0  0  0  0  0  0  0  0  0  0  0
    0.0000    0.0000    0.0000 H   0  0  0  0  0  0  0  0  0  0  0  0
    0.0000    0.0000    0.0000 H   0  0  0  0  0  0  0  0  0  0  0  0
    0.0000    0.0000    0.0000 H   0  0  0  0  0  0  0  0  0  0  0  0
    0.0000    0.0000    0.0000 H   0  0  0  0  0  0  0  0  0  0  0  0
    0.0000    0.0000    0.0000 H   0  0  0  0  0  0  0  0  0  0  0  0
    0.0000    0.0000    0.0000 H   0  0  0  0  0  0  0  0  0  0  0  0
    0.0000    0.0000    0.0000 H   0  0  0  0  0  0  0  0  0  0  0  0
    0.0000    0.0000    0.0000 H   0  0  0  0  0  0  0  0  0  0  0  0
    0.0000    0.0000    0.0000 H   0  0  0  0  0  0  0  0  0  0  0  0
   12.4397    5.2782    9.0831 C   0  0  0  0  0  0  0  0  0  0  0  0
   12.6907    4.2846    8.1399 C   0  0  0  0  0  0  0  0  0  0  0  0
   11.6799    3.7865    7.3311 C   0  0  0  0  0  0  0  0  0  0  0  0
   10.4092    4.3014    7.4826 C   0  0  0  0  0  0  0  0  0  0  0  0
   10.1850    5.2892    8.4277 C   0  0  0  0  0  0  0  0  0  0  0  0
   11.1670    5.7907    9.2317 C   0  0  0  0  0  0  0  0  0  0  0  0
   10.9228    6.8281   10.2216 C   0  0  0  0  0  0  0  0  0  0  0  0
   10.7132    7.6422   11.0163 N   0  0  0  0  0  0  0  0  0  0  0  0
   13.6756    3.8771    8.0140 H   0  0  0  0  0  0  0  0  0  0  0  0
   11.8711    3.0140    6.5967 H   0  0  0  0  0  0  0  0  0  0  0  0
    9.5838    3.9464    6.8751 H   0  0  0  0  0  0  0  0  0  0  0  0
    9.1763    5.7100    8.5604 H   0  0  0  0  0  0  0  0  0  0  0  0
  1  3  2  0
  1  4  1  0
  1  5  1  0
  2  4  1  0
  2  6  1  0
  4  9  1  0
  4 15  1  0
  5  6  1  0
  5  8  1  0
  6  7  2  3
  9 10  2  0
  9 14  1  0
 10 11  1  0
 11 12  2  0
 12 13  1  0
 13 14  2  0
 15 16  2  0
 15 20  1  0
 16 17  1  0
 17 18  2  0
 18 19  1  0
 19 20  2  0
  2 21  1  0
  7 22  1  0
  8 23  1  0
  8 24  1  0
  8 25  1  0
 10 26  1  0
 11 27  1  0
 12 28  1  0
 13 29  1  0
 14 30  1  0
 16 31  1  0
 17 32  1  0
 19 33  1  0
 20 34  1  0
 35 36  2  0
 36 37  1  0
 37 38  2  0
 38 39  1  0
 39 40  2  0
 40 41  1  0
 41 42  3  0
 40 35  1  0
 36 43  1  0
 37 44  1  0
 38 45  1  0
 39 46  1  0
 18 35  1  0
M  END
>  <attachment_point>  (407) 
32

>  <score>  (407) 
<NA>

$$$$
4djw
     RDKit          3D

 45 48  0  0  0  0  0  0  0  0999 V2000
   22.4950   11.8750   22.5810 C   0  0  0  0  0  0  0  0  0  0  0  0
   22.5380    9.4930   22.4640 N   0  0  0  0  0  0  0  0  0  0  0  0
   22.3600   13.0630   22.3480 O   0  0  0  0  0  0  0  0  0  0  0  0
   22.3390   10.6680   21.5610 C   0  0  0  0  0  0  0  0  0  0  0  0
   22.7860   11.3350   23.8120 N   0  0  0  0  0  0  0  0  0  0  0  0
   22.7800    9.9140   23.7010 C   0  0  0  0  0  0  0  0  0  0  0  0
   22.9970    9.1110   24.7490 N   0  0  0  0  0  0  0  0  0  0  0  0
   23.0220   12.1410   25.0180 C   0  0  0  0  0  0  0  0  0  0  0  0
   20.9020   10.6270   21.0050 C   0  0  0  0  0  0  0  0  0  0  0  0
   20.2720    9.4140   20.7470 C   0  0  0  0  0  0  0  0  0  0  0  0
   18.9690    9.3760   20.2600 C   0  0  0  0  0  0  0  0  0  0  0  0
   18.2800   10.5440   20.0210 C   0  0  0  0  0  0  0  0  0  0  0  0
   18.8920   11.7530   20.2590 C   0  0  0  0  0  0  0  0  0  0  0  0
   20.1950   11.7970   20.7440 C   0  0  0  0  0  0  0  0  0  0  0  0
   23.4880   10.6920   20.5300 C   0  0  0  0  0  0  0  0  0  0  0  0
   23.2110   10.7890   19.1730 C   0  0  0  0  0  0  0  0  0  0  0  0
   24.2350   10.8650   18.2430 C   0  0  0  0  0  0  0  0  0  0  0  0
   25.5500   10.8410   18.6560 C   0  0  0  0  0  0  0  0  0  0  0  0
   25.8710   10.7460   20.0070 C   0  0  0  0  0  0  0  0  0  0  0  0
   24.8260   10.6610   20.9430 C   0  0  0  0  0  0  0  0  0  0  0  0
    0.0000    0.0000    0.0000 H   0  0  0  0  0  0  0  0  0  0  0  0
    0.0000    0.0000    0.0000 H   0  0  0  0  0  0  0  0  0  0  0  0
    0.0000    0.0000    0.0000 H   0  0  0  0  0  0  0  0  0  0  0  0
    0.0000    0.0000    0.0000 H   0  0  0  0  0  0  0  0  0  0  0  0
    0.0000    0.0000    0.0000 H   0  0  0  0  0  0  0  0  0  0  0  0
    0.0000    0.0000    0.0000 H   0  0  0  0  0  0  0  0  0  0  0  0
    0.0000    0.0000    0.0000 H   0  0  0  0  0  0  0  0  0  0  0  0
    0.0000    0.0000    0.0000 H   0  0  0  0  0  0  0  0  0  0  0  0
    0.0000    0.0000    0.0000 H   0  0  0  0  0  0  0  0  0  0  0  0
    0.0000    0.0000    0.0000 H   0  0  0  0  0  0  0  0  0  0  0  0
    0.0000    0.0000    0.0000 H   0  0  0  0  0  0  0  0  0  0  0  0
    0.0000    0.0000    0.0000 H   0  0  0  0  0  0  0  0  0  0  0  0
    0.0000    0.0000    0.0000 H   0  0  0  0  0  0  0  0  0  0  0  0
    0.0000    0.0000    0.0000 H   0  0  0  0  0  0  0  0  0  0  0  0
   12.4469    5.2813    9.0884 C   0  0  0  0  0  0  0  0  0  0  0  0
   12.5504    5.1825    7.7098 C   0  0  0  0  0  0  0  0  0  0  0  0
   11.4706    4.7302    6.9805 C   0  0  0  0  0  0  0  0  0  0  0  0
   11.6305    4.6167    5.2500 Cl  0  0  0  0  0  0  0  0  0  0  0  0
   10.3180    4.3871    7.6254 C   0  0  0  0  0  0  0  0  0  0  0  0
   10.1823    4.4735    8.9937 C   0  0  0  0  0  0  0  0  0  0  0  0
    8.6772    4.0227    9.8079 Cl  0  0  0  0  0  0  0  0  0  0  0  0
   11.2623    4.9272    9.7369 C   0  0  0  0  0  0  0  0  0  0  0  0
   13.4637    5.4552    7.2078 H   0  0  0  0  0  0  0  0  0  0  0  0
    9.4562    4.0278    7.0615 H   0  0  0  0  0  0  0  0  0  0  0  0
   11.1807    5.0060   10.8325 H   0  0  0  0  0  0  0  0  0  0  0  0
  1  3  2  0
  1  4  1  0
  1  5  1  0
  2  4  1  0
  2  6  1  0
  4  9  1  0
  4 15  1  0
  5  6  1  0
  5  8  1  0
  6  7  2  3
  9 10  2  0
  9 14  1  0
 10 11  1  0
 11 12  2  0
 12 13  1  0
 13 14  2  0
 15 16  2  0
 15 20  1  0
 16 17  1  0
 17 18  2  0
 18 19  1  0
 19 20  2  0
  2 21  1  0
  7 22  1  0
  8 23  1  0
  8 24  1  0
  8 25  1  0
 10 26  1  0
 11 27  1  0
 12 28  1  0
 13 29  1  0
 14 30  1  0
 16 31  1  0
 17 32  1  0
 19 33  1  0
 20 34  1  0
 35 36  2  0
 36 37  1  0
 37 38  1  0
 37 39  2  0
 39 40  1  0
 40 41  1  0
 40 42  2  0
 42 35  1  0
 36 43  1  0
 39 44  1  0
 42 45  1  0
 18 35  1  0
M  END
>  <attachment_point>  (408) 
32

>  <score>  (408) 
<NA>

$$$$
4djw
     RDKit          3D

 45 48  0  0  0  0  0  0  0  0999 V2000
   22.4950   11.8750   22.5810 C   0  0  0  0  0  0  0  0  0  0  0  0
   22.5380    9.4930   22.4640 N   0  0  0  0  0  0  0  0  0  0  0  0
   22.3600   13.0630   22.3480 O   0  0  0  0  0  0  0  0  0  0  0  0
   22.3390   10.6680   21.5610 C   0  0  0  0  0  0  0  0  0  0  0  0
   22.7860   11.3350   23.8120 N   0  0  0  0  0  0  0  0  0  0  0  0
   22.7800    9.9140   23.7010 C   0  0  0  0  0  0  0  0  0  0  0  0
   22.9970    9.1110   24.7490 N   0  0  0  0  0  0  0  0  0  0  0  0
   23.0220   12.1410   25.0180 C   0  0  0  0  0  0  0  0  0  0  0  0
   20.9020   10.6270   21.0050 C   0  0  0  0  0  0  0  0  0  0  0  0
   20.2720    9.4140   20.7470 C   0  0  0  0  0  0  0  0  0  0  0  0
   18.9690    9.3760   20.2600 C   0  0  0  0  0  0  0  0  0  0  0  0
   18.2800   10.5440   20.0210 C   0  0  0  0  0  0  0  0  0  0  0  0
   18.8920   11.7530   20.2590 C   0  0  0  0  0  0  0  0  0  0  0  0
   20.1950   11.7970   20.7440 C   0  0  0  0  0  0  0  0  0  0  0  0
   23.4880   10.6920   20.5300 C   0  0  0  0  0  0  0  0  0  0  0  0
   23.2110   10.7890   19.1730 C   0  0  0  0  0  0  0  0  0  0  0  0
   24.2350   10.8650   18.2430 C   0  0  0  0  0  0  0  0  0  0  0  0
   25.5500   10.8410   18.6560 C   0  0  0  0  0  0  0  0  0  0  0  0
   25.8710   10.7460   20.0070 C   0  0  0  0  0  0  0  0  0  0  0  0
   24.8260   10.6610   20.9430 C   0  0  0  0  0  0  0  0  0  0  0  0
    0.0000    0.0000    0.0000 H   0  0  0  0  0  0  0  0  0  0  0  0
    0.0000    0.0000    0.0000 H   0  0  0  0  0  0  0  0  0  0  0  0
    0.0000    0.0000    0.0000 H   0  0  0  0  0  0  0  0  0  0  0  0
    0.0000    0.0000    0.0000 H   0  0  0  0  0  0  0  0  0  0  0  0
    0.0000    0.0000    0.0000 H   0  0  0  0  0  0  0  0  0  0  0  0
    0.0000    0.0000    0.0000 H   0  0  0  0  0  0  0  0  0  0  0  0
    0.0000    0.0000    0.0000 H   0  0  0  0  0  0  0  0  0  0  0  0
    0.0000    0.0000    0.0000 H   0  0  0  0  0  0  0  0  0  0  0  0
    0.0000    0.0000    0.0000 H   0  0  0  0  0  0  0  0  0  0  0  0
    0.0000    0.0000    0.0000 H   0  0  0  0  0  0  0  0  0  0  0  0
    0.0000    0.0000    0.0000 H   0  0  0  0  0  0  0  0  0  0  0  0
    0.0000    0.0000    0.0000 H   0  0  0  0  0  0  0  0  0  0  0  0
    0.0000    0.0000    0.0000 H   0  0  0  0  0  0  0  0  0  0  0  0
    0.0000    0.0000    0.0000 H   0  0  0  0  0  0  0  0  0  0  0  0
   12.4039    5.2630    9.0570 C   0  0  0  0  0  0  0  0  0  0  0  0
   12.2984    3.9315    8.7941 C   0  0  0  0  0  0  0  0  0  0  0  0
   11.2346    3.5249    8.0239 N   0  0  0  0  0  0  0  0  0  0  0  0
   10.3300    4.3900    7.5439 C   0  0  0  0  0  0  0  0  0  0  0  0
    9.2209    3.9388    6.7368 N   0  0  0  0  0  0  0  0  0  0  0  0
   10.4731    5.6926    7.8278 N   0  0  0  0  0  0  0  0  0  0  0  0
   11.5077    6.1765    8.5896 C   0  0  0  0  0  0  0  0  0  0  0  0
   13.0044    3.2085    9.1619 H   0  0  0  0  0  0  0  0  0  0  0  0
    8.3709    3.5276    7.1914 H   0  0  0  0  0  0  0  0  0  0  0  0
    9.2347    4.0087    5.6945 H   0  0  0  0  0  0  0  0  0  0  0  0
   11.5944    7.2357    8.8006 H   0  0  0  0  0  0  0  0  0  0  0  0
  1  3  2  0
  1  4  1  0
  1  5  1  0
  2  4  1  0
  2  6  1  0
  4  9  1  0
  4 15  1  0
  5  6  1  0
  5  8  1  0
  6  7  2  3
  9 10  2  0
  9 14  1  0
 10 11  1  0
 11 12  2  0
 12 13  1  0
 13 14  2  0
 15 16  2  0
 15 20  1  0
 16 17  1  0
 17 18  2  0
 18 19  1  0
 19 20  2  0
  2 21  1  0
  7 22  1  0
  8 23  1  0
  8 24  1  0
  8 25  1  0
 10 26  1  0
 11 27  1  0
 12 28  1  0
 13 29  1  0
 14 30  1  0
 16 31  1  0
 17 32  1  0
 19 33  1  0
 20 34  1  0
 35 36  2  0
 36 37  1  0
 37 38  2  0
 38 39  1  0
 38 40  1  0
 40 41  2  0
 41 35  1  0
 36 42  1  0
 39 43  1  0
 39 44  1  0
 41 45  1  0
 18 35  1  0
M  END
>  <attachment_point>  (409) 
32

>  <score>  (409) 
<NA>

$$$$
4djw
     RDKit          3D

 38 40  0  0  0  0  0  0  0  0999 V2000
   22.4950   11.8750   22.5810 C   0  0  0  0  0  0  0  0  0  0  0  0
   22.5380    9.4930   22.4640 N   0  0  0  0  0  0  0  0  0  0  0  0
   22.3600   13.0630   22.3480 O   0  0  0  0  0  0  0  0  0  0  0  0
   22.3390   10.6680   21.5610 C   0  0  0  0  0  0  0  0  0  0  0  0
   22.7860   11.3350   23.8120 N   0  0  0  0  0  0  0  0  0  0  0  0
   22.7800    9.9140   23.7010 C   0  0  0  0  0  0  0  0  0  0  0  0
   22.9970    9.1110   24.7490 N   0  0  0  0  0  0  0  0  0  0  0  0
   23.0220   12.1410   25.0180 C   0  0  0  0  0  0  0  0  0  0  0  0
   20.9020   10.6270   21.0050 C   0  0  0  0  0  0  0  0  0  0  0  0
   20.2720    9.4140   20.7470 C   0  0  0  0  0  0  0  0  0  0  0  0
   18.9690    9.3760   20.2600 C   0  0  0  0  0  0  0  0  0  0  0  0
   18.2800   10.5440   20.0210 C   0  0  0  0  0  0  0  0  0  0  0  0
   18.8920   11.7530   20.2590 C   0  0  0  0  0  0  0  0  0  0  0  0
   20.1950   11.7970   20.7440 C   0  0  0  0  0  0  0  0  0  0  0  0
   23.4880   10.6920   20.5300 C   0  0  0  0  0  0  0  0  0  0  0  0
   23.2110   10.7890   19.1730 C   0  0  0  0  0  0  0  0  0  0  0  0
   24.2350   10.8650   18.2430 C   0  0  0  0  0  0  0  0  0  0  0  0
   25.5500   10.8410   18.6560 C   0  0  0  0  0  0  0  0  0  0  0  0
   25.8710   10.7460   20.0070 C   0  0  0  0  0  0  0  0  0  0  0  0
   24.8260   10.6610   20.9430 C   0  0  0  0  0  0  0  0  0  0  0  0
    0.0000    0.0000    0.0000 H   0  0  0  0  0  0  0  0  0  0  0  0
    0.0000    0.0000    0.0000 H   0  0  0  0  0  0  0  0  0  0  0  0
    0.0000    0.0000    0.0000 H   0  0  0  0  0  0  0  0  0  0  0  0
    0.0000    0.0000    0.0000 H   0  0  0  0  0  0  0  0  0  0  0  0
    0.0000    0.0000    0.0000 H   0  0  0  0  0  0  0  0  0  0  0  0
    0.0000    0.0000    0.0000 H   0  0  0  0  0  0  0  0  0  0  0  0
    0.0000    0.0000    0.0000 H   0  0  0  0  0  0  0  0  0  0  0  0
    0.0000    0.0000    0.0000 H   0  0  0  0  0  0  0  0  0  0  0  0
    0.0000    0.0000    0.0000 H   0  0  0  0  0  0  0  0  0  0  0  0
    0.0000    0.0000    0.0000 H   0  0  0  0  0  0  0  0  0  0  0  0
    0.0000    0.0000    0.0000 H   0  0  0  0  0  0  0  0  0  0  0  0
    0.0000    0.0000    0.0000 H   0  0  0  0  0  0  0  0  0  0  0  0
    0.0000    0.0000    0.0000 H   0  0  0  0  0  0  0  0  0  0  0  0
    0.0000    0.0000    0.0000 H   0  0  0  0  0  0  0  0  0  0  0  0
   12.4024    5.2624    9.0559 C   0  0  0  0  0  0  0  0  0  0  0  0
   10.9553    5.7754    9.8881 Cl  0  0  0  0  0  0  0  0  0  0  0  0
   12.5977    5.7913    8.1130 H   0  0  0  0  0  0  0  0  0  0  0  0
   12.5671    4.1832    9.0243 H   0  0  0  0  0  0  0  0  0  0  0  0
  1  3  2  0
  1  4  1  0
  1  5  1  0
  2  4  1  0
  2  6  1  0
  4  9  1  0
  4 15  1  0
  5  6  1  0
  5  8  1  0
  6  7  2  3
  9 10  2  0
  9 14  1  0
 10 11  1  0
 11 12  2  0
 12 13  1  0
 13 14  2  0
 15 16  2  0
 15 20  1  0
 16 17  1  0
 17 18  2  0
 18 19  1  0
 19 20  2  0
  2 21  1  0
  7 22  1  0
  8 23  1  0
  8 24  1  0
  8 25  1  0
 10 26  1  0
 11 27  1  0
 12 28  1  0
 13 29  1  0
 14 30  1  0
 16 31  1  0
 17 32  1  0
 19 33  1  0
 20 34  1  0
 35 36  1  0
 35 37  1  0
 35 38  1  0
 18 35  1  0
M  END
>  <attachment_point>  (410) 
32

>  <score>  (410) 
<NA>

$$$$
4djw
     RDKit          3D

 48 50  0  0  0  0  0  0  0  0999 V2000
   22.4950   11.8750   22.5810 C   0  0  0  0  0  0  0  0  0  0  0  0
   22.5380    9.4930   22.4640 N   0  0  0  0  0  0  0  0  0  0  0  0
   22.3600   13.0630   22.3480 O   0  0  0  0  0  0  0  0  0  0  0  0
   22.3390   10.6680   21.5610 C   0  0  0  0  0  0  0  0  0  0  0  0
   22.7860   11.3350   23.8120 N   0  0  0  0  0  0  0  0  0  0  0  0
   22.7800    9.9140   23.7010 C   0  0  0  0  0  0  0  0  0  0  0  0
   22.9970    9.1110   24.7490 N   0  0  0  0  0  0  0  0  0  0  0  0
   23.0220   12.1410   25.0180 C   0  0  0  0  0  0  0  0  0  0  0  0
   20.9020   10.6270   21.0050 C   0  0  0  0  0  0  0  0  0  0  0  0
   20.2720    9.4140   20.7470 C   0  0  0  0  0  0  0  0  0  0  0  0
   18.9690    9.3760   20.2600 C   0  0  0  0  0  0  0  0  0  0  0  0
   18.2800   10.5440   20.0210 C   0  0  0  0  0  0  0  0  0  0  0  0
   18.8920   11.7530   20.2590 C   0  0  0  0  0  0  0  0  0  0  0  0
   20.1950   11.7970   20.7440 C   0  0  0  0  0  0  0  0  0  0  0  0
   23.4880   10.6920   20.5300 C   0  0  0  0  0  0  0  0  0  0  0  0
   23.2110   10.7890   19.1730 C   0  0  0  0  0  0  0  0  0  0  0  0
   24.2350   10.8650   18.2430 C   0  0  0  0  0  0  0  0  0  0  0  0
   25.5500   10.8410   18.6560 C   0  0  0  0  0  0  0  0  0  0  0  0
   25.8710   10.7460   20.0070 C   0  0  0  0  0  0  0  0  0  0  0  0
   24.8260   10.6610   20.9430 C   0  0  0  0  0  0  0  0  0  0  0  0
    0.0000    0.0000    0.0000 H   0  0  0  0  0  0  0  0  0  0  0  0
    0.0000    0.0000    0.0000 H   0  0  0  0  0  0  0  0  0  0  0  0
    0.0000    0.0000    0.0000 H   0  0  0  0  0  0  0  0  0  0  0  0
    0.0000    0.0000    0.0000 H   0  0  0  0  0  0  0  0  0  0  0  0
    0.0000    0.0000    0.0000 H   0  0  0  0  0  0  0  0  0  0  0  0
    0.0000    0.0000    0.0000 H   0  0  0  0  0  0  0  0  0  0  0  0
    0.0000    0.0000    0.0000 H   0  0  0  0  0  0  0  0  0  0  0  0
    0.0000    0.0000    0.0000 H   0  0  0  0  0  0  0  0  0  0  0  0
    0.0000    0.0000    0.0000 H   0  0  0  0  0  0  0  0  0  0  0  0
    0.0000    0.0000    0.0000 H   0  0  0  0  0  0  0  0  0  0  0  0
    0.0000    0.0000    0.0000 H   0  0  0  0  0  0  0  0  0  0  0  0
    0.0000    0.0000    0.0000 H   0  0  0  0  0  0  0  0  0  0  0  0
    0.0000    0.0000    0.0000 H   0  0  0  0  0  0  0  0  0  0  0  0
    0.0000    0.0000    0.0000 H   0  0  0  0  0  0  0  0  0  0  0  0
   12.3935    5.2586    9.0494 N   0  0  0  0  0  0  0  0  0  0  0  0
   12.7094    4.8433    7.7855 C   0  0  0  0  0  0  0  0  0  0  0  0
   13.8855    4.8673    7.3519 O   0  0  0  0  0  0  0  0  0  0  0  0
   11.6365    4.3477    6.8923 C   0  0  0  0  0  0  0  0  0  0  0  0
   12.1711    3.9353    5.5437 C   0  0  0  0  0  0  0  0  0  0  0  0
   10.9992    3.4489    4.7171 C   0  0  0  0  0  0  0  0  0  0  0  0
   11.5165    5.2905    9.5081 H   0  0  0  0  0  0  0  0  0  0  0  0
   10.8655    5.1507    6.8121 H   0  0  0  0  0  0  0  0  0  0  0  0
   11.1896    3.4636    7.3904 H   0  0  0  0  0  0  0  0  0  0  0  0
   12.7577    4.7185    5.0579 H   0  0  0  0  0  0  0  0  0  0  0  0
   12.8514    3.0666    5.7286 H   0  0  0  0  0  0  0  0  0  0  0  0
   11.3136    2.6953    3.9635 H   0  0  0  0  0  0  0  0  0  0  0  0
   10.5738    4.3550    4.2188 H   0  0  0  0  0  0  0  0  0  0  0  0
   10.2048    3.0332    5.3810 H   0  0  0  0  0  0  0  0  0  0  0  0
  1  3  2  0
  1  4  1  0
  1  5  1  0
  2  4  1  0
  2  6  1  0
  4  9  1  0
  4 15  1  0
  5  6  1  0
  5  8  1  0
  6  7  2  3
  9 10  2  0
  9 14  1  0
 10 11  1  0
 11 12  2  0
 12 13  1  0
 13 14  2  0
 15 16  2  0
 15 20  1  0
 16 17  1  0
 17 18  2  0
 18 19  1  0
 19 20  2  0
  2 21  1  0
  7 22  1  0
  8 23  1  0
  8 24  1  0
  8 25  1  0
 10 26  1  0
 11 27  1  0
 12 28  1  0
 13 29  1  0
 14 30  1  0
 16 31  1  0
 17 32  1  0
 19 33  1  0
 20 34  1  0
 35 36  1  0
 36 37  2  0
 36 38  1  0
 38 39  1  0
 39 40  1  0
 35 41  1  0
 38 42  1  0
 38 43  1  0
 39 44  1  0
 39 45  1  0
 40 46  1  0
 40 47  1  0
 40 48  1  0
 18 35  1  0
M  END
>  <attachment_point>  (411) 
32

>  <score>  (411) 
<NA>

$$$$
4djw
     RDKit          3D

 48 51  0  0  0  0  0  0  0  0999 V2000
   22.4950   11.8750   22.5810 C   0  0  0  0  0  0  0  0  0  0  0  0
   22.5380    9.4930   22.4640 N   0  0  0  0  0  0  0  0  0  0  0  0
   22.3600   13.0630   22.3480 O   0  0  0  0  0  0  0  0  0  0  0  0
   22.3390   10.6680   21.5610 C   0  0  0  0  0  0  0  0  0  0  0  0
   22.7860   11.3350   23.8120 N   0  0  0  0  0  0  0  0  0  0  0  0
   22.7800    9.9140   23.7010 C   0  0  0  0  0  0  0  0  0  0  0  0
   22.9970    9.1110   24.7490 N   0  0  0  0  0  0  0  0  0  0  0  0
   23.0220   12.1410   25.0180 C   0  0  0  0  0  0  0  0  0  0  0  0
   20.9020   10.6270   21.0050 C   0  0  0  0  0  0  0  0  0  0  0  0
   20.2720    9.4140   20.7470 C   0  0  0  0  0  0  0  0  0  0  0  0
   18.9690    9.3760   20.2600 C   0  0  0  0  0  0  0  0  0  0  0  0
   18.2800   10.5440   20.0210 C   0  0  0  0  0  0  0  0  0  0  0  0
   18.8920   11.7530   20.2590 C   0  0  0  0  0  0  0  0  0  0  0  0
   20.1950   11.7970   20.7440 C   0  0  0  0  0  0  0  0  0  0  0  0
   23.4880   10.6920   20.5300 C   0  0  0  0  0  0  0  0  0  0  0  0
   23.2110   10.7890   19.1730 C   0  0  0  0  0  0  0  0  0  0  0  0
   24.2350   10.8650   18.2430 C   0  0  0  0  0  0  0  0  0  0  0  0
   25.5500   10.8410   18.6560 C   0  0  0  0  0  0  0  0  0  0  0  0
   25.8710   10.7460   20.0070 C   0  0  0  0  0  0  0  0  0  0  0  0
   24.8260   10.6610   20.9430 C   0  0  0  0  0  0  0  0  0  0  0  0
    0.0000    0.0000    0.0000 H   0  0  0  0  0  0  0  0  0  0  0  0
    0.0000    0.0000    0.0000 H   0  0  0  0  0  0  0  0  0  0  0  0
    0.0000    0.0000    0.0000 H   0  0  0  0  0  0  0  0  0  0  0  0
    0.0000    0.0000    0.0000 H   0  0  0  0  0  0  0  0  0  0  0  0
    0.0000    0.0000    0.0000 H   0  0  0  0  0  0  0  0  0  0  0  0
    0.0000    0.0000    0.0000 H   0  0  0  0  0  0  0  0  0  0  0  0
    0.0000    0.0000    0.0000 H   0  0  0  0  0  0  0  0  0  0  0  0
    0.0000    0.0000    0.0000 H   0  0  0  0  0  0  0  0  0  0  0  0
    0.0000    0.0000    0.0000 H   0  0  0  0  0  0  0  0  0  0  0  0
    0.0000    0.0000    0.0000 H   0  0  0  0  0  0  0  0  0  0  0  0
    0.0000    0.0000    0.0000 H   0  0  0  0  0  0  0  0  0  0  0  0
    0.0000    0.0000    0.0000 H   0  0  0  0  0  0  0  0  0  0  0  0
    0.0000    0.0000    0.0000 H   0  0  0  0  0  0  0  0  0  0  0  0
    0.0000    0.0000    0.0000 H   0  0  0  0  0  0  0  0  0  0  0  0
   12.4280    5.2733    9.0746 S   0  0  0  0  0  6  0  0  0  0  0  0
   12.6591    3.8325    8.7429 O   0  0  0  0  0  0  0  0  0  0  0  0
   11.1509    5.3458    9.8538 O   0  0  0  0  0  0  0  0  0  0  0  0
   12.2756    6.2607    7.6297 C   0  0  0  0  0  0  0  0  0  0  0  0
   11.4893    7.3925    7.6021 C   0  0  0  0  0  0  0  0  0  0  0  0
   11.3603    8.1824    6.4654 C   0  0  0  0  0  0  0  0  0  0  0  0
   12.0293    7.8520    5.3035 C   0  0  0  0  0  0  0  0  0  0  0  0
   11.8559    8.8587    3.8785 Cl  0  0  0  0  0  0  0  0  0  0  0  0
   12.8208    6.7190    5.3194 C   0  0  0  0  0  0  0  0  0  0  0  0
   12.9382    5.9424    6.4625 C   0  0  0  0  0  0  0  0  0  0  0  0
   10.9710    7.6396    8.5188 H   0  0  0  0  0  0  0  0  0  0  0  0
   10.7283    9.0754    6.4747 H   0  0  0  0  0  0  0  0  0  0  0  0
   13.3405    6.4708    4.4011 H   0  0  0  0  0  0  0  0  0  0  0  0
   13.5669    5.0515    6.4580 H   0  0  0  0  0  0  0  0  0  0  0  0
  1  3  2  0
  1  4  1  0
  1  5  1  0
  2  4  1  0
  2  6  1  0
  4  9  1  0
  4 15  1  0
  5  6  1  0
  5  8  1  0
  6  7  2  3
  9 10  2  0
  9 14  1  0
 10 11  1  0
 11 12  2  0
 12 13  1  0
 13 14  2  0
 15 16  2  0
 15 20  1  0
 16 17  1  0
 17 18  2  0
 18 19  1  0
 19 20  2  0
  2 21  1  0
  7 22  1  0
  8 23  1  0
  8 24  1  0
  8 25  1  0
 10 26  1  0
 11 27  1  0
 12 28  1  0
 13 29  1  0
 14 30  1  0
 16 31  1  0
 17 32  1  0
 19 33  1  0
 20 34  1  0
 35 36  2  0
 35 37  2  0
 35 38  1  0
 38 39  2  0
 39 40  1  0
 40 41  2  0
 41 42  1  0
 41 43  1  0
 43 44  2  0
 44 38  1  0
 39 45  1  0
 40 46  1  0
 43 47  1  0
 44 48  1  0
 18 35  1  0
M  END
>  <attachment_point>  (412) 
32

>  <score>  (412) 
<NA>

$$$$
4djw
     RDKit          3D

 38 40  0  0  0  0  0  0  0  0999 V2000
   22.4950   11.8750   22.5810 C   0  0  0  0  0  0  0  0  0  0  0  0
   22.5380    9.4930   22.4640 N   0  0  0  0  0  0  0  0  0  0  0  0
   22.3600   13.0630   22.3480 O   0  0  0  0  0  0  0  0  0  0  0  0
   22.3390   10.6680   21.5610 C   0  0  0  0  0  0  0  0  0  0  0  0
   22.7860   11.3350   23.8120 N   0  0  0  0  0  0  0  0  0  0  0  0
   22.7800    9.9140   23.7010 C   0  0  0  0  0  0  0  0  0  0  0  0
   22.9970    9.1110   24.7490 N   0  0  0  0  0  0  0  0  0  0  0  0
   23.0220   12.1410   25.0180 C   0  0  0  0  0  0  0  0  0  0  0  0
   20.9020   10.6270   21.0050 C   0  0  0  0  0  0  0  0  0  0  0  0
   20.2720    9.4140   20.7470 C   0  0  0  0  0  0  0  0  0  0  0  0
   18.9690    9.3760   20.2600 C   0  0  0  0  0  0  0  0  0  0  0  0
   18.2800   10.5440   20.0210 C   0  0  0  0  0  0  0  0  0  0  0  0
   18.8920   11.7530   20.2590 C   0  0  0  0  0  0  0  0  0  0  0  0
   20.1950   11.7970   20.7440 C   0  0  0  0  0  0  0  0  0  0  0  0
   23.4880   10.6920   20.5300 C   0  0  0  0  0  0  0  0  0  0  0  0
   23.2110   10.7890   19.1730 C   0  0  0  0  0  0  0  0  0  0  0  0
   24.2350   10.8650   18.2430 C   0  0  0  0  0  0  0  0  0  0  0  0
   25.5500   10.8410   18.6560 C   0  0  0  0  0  0  0  0  0  0  0  0
   25.8710   10.7460   20.0070 C   0  0  0  0  0  0  0  0  0  0  0  0
   24.8260   10.6610   20.9430 C   0  0  0  0  0  0  0  0  0  0  0  0
    0.0000    0.0000    0.0000 H   0  0  0  0  0  0  0  0  0  0  0  0
    0.0000    0.0000    0.0000 H   0  0  0  0  0  0  0  0  0  0  0  0
    0.0000    0.0000    0.0000 H   0  0  0  0  0  0  0  0  0  0  0  0
    0.0000    0.0000    0.0000 H   0  0  0  0  0  0  0  0  0  0  0  0
    0.0000    0.0000    0.0000 H   0  0  0  0  0  0  0  0  0  0  0  0
    0.0000    0.0000    0.0000 H   0  0  0  0  0  0  0  0  0  0  0  0
    0.0000    0.0000    0.0000 H   0  0  0  0  0  0  0  0  0  0  0  0
    0.0000    0.0000    0.0000 H   0  0  0  0  0  0  0  0  0  0  0  0
    0.0000    0.0000    0.0000 H   0  0  0  0  0  0  0  0  0  0  0  0
    0.0000    0.0000    0.0000 H   0  0  0  0  0  0  0  0  0  0  0  0
    0.0000    0.0000    0.0000 H   0  0  0  0  0  0  0  0  0  0  0  0
    0.0000    0.0000    0.0000 H   0  0  0  0  0  0  0  0  0  0  0  0
    0.0000    0.0000    0.0000 H   0  0  0  0  0  0  0  0  0  0  0  0
    0.0000    0.0000    0.0000 H   0  0  0  0  0  0  0  0  0  0  0  0
   12.4157    5.2680    9.0656 C   0  0  0  0  0  0  0  0  0  0  0  0
   11.3301    5.3049    9.8901 F   0  0  0  0  0  0  0  0  0  0  0  0
   12.7237    4.0241    8.6020 F   0  0  0  0  0  0  0  0  0  0  0  0
   12.3518    6.0176    8.2637 H   0  0  0  0  0  0  0  0  0  0  0  0
  1  3  2  0
  1  4  1  0
  1  5  1  0
  2  4  1  0
  2  6  1  0
  4  9  1  0
  4 15  1  0
  5  6  1  0
  5  8  1  0
  6  7  2  3
  9 10  2  0
  9 14  1  0
 10 11  1  0
 11 12  2  0
 12 13  1  0
 13 14  2  0
 15 16  2  0
 15 20  1  0
 16 17  1  0
 17 18  2  0
 18 19  1  0
 19 20  2  0
  2 21  1  0
  7 22  1  0
  8 23  1  0
  8 24  1  0
  8 25  1  0
 10 26  1  0
 11 27  1  0
 12 28  1  0
 13 29  1  0
 14 30  1  0
 16 31  1  0
 17 32  1  0
 19 33  1  0
 20 34  1  0
 35 36  1  0
 35 37  1  0
 35 38  1  0
 18 35  1  0
M  END
>  <attachment_point>  (413) 
32

>  <score>  (413) 
<NA>

$$$$
4djw
     RDKit          3D

 57 60  0  0  0  0  0  0  0  0999 V2000
   22.4950   11.8750   22.5810 C   0  0  0  0  0  0  0  0  0  0  0  0
   22.5380    9.4930   22.4640 N   0  0  0  0  0  0  0  0  0  0  0  0
   22.3600   13.0630   22.3480 O   0  0  0  0  0  0  0  0  0  0  0  0
   22.3390   10.6680   21.5610 C   0  0  0  0  0  0  0  0  0  0  0  0
   22.7860   11.3350   23.8120 N   0  0  0  0  0  0  0  0  0  0  0  0
   22.7800    9.9140   23.7010 C   0  0  0  0  0  0  0  0  0  0  0  0
   22.9970    9.1110   24.7490 N   0  0  0  0  0  0  0  0  0  0  0  0
   23.0220   12.1410   25.0180 C   0  0  0  0  0  0  0  0  0  0  0  0
   20.9020   10.6270   21.0050 C   0  0  0  0  0  0  0  0  0  0  0  0
   20.2720    9.4140   20.7470 C   0  0  0  0  0  0  0  0  0  0  0  0
   18.9690    9.3760   20.2600 C   0  0  0  0  0  0  0  0  0  0  0  0
   18.2800   10.5440   20.0210 C   0  0  0  0  0  0  0  0  0  0  0  0
   18.8920   11.7530   20.2590 C   0  0  0  0  0  0  0  0  0  0  0  0
   20.1950   11.7970   20.7440 C   0  0  0  0  0  0  0  0  0  0  0  0
   23.4880   10.6920   20.5300 C   0  0  0  0  0  0  0  0  0  0  0  0
   23.2110   10.7890   19.1730 C   0  0  0  0  0  0  0  0  0  0  0  0
   24.2350   10.8650   18.2430 C   0  0  0  0  0  0  0  0  0  0  0  0
   25.5500   10.8410   18.6560 C   0  0  0  0  0  0  0  0  0  0  0  0
   25.8710   10.7460   20.0070 C   0  0  0  0  0  0  0  0  0  0  0  0
   24.8260   10.6610   20.9430 C   0  0  0  0  0  0  0  0  0  0  0  0
    0.0000    0.0000    0.0000 H   0  0  0  0  0  0  0  0  0  0  0  0
    0.0000    0.0000    0.0000 H   0  0  0  0  0  0  0  0  0  0  0  0
    0.0000    0.0000    0.0000 H   0  0  0  0  0  0  0  0  0  0  0  0
    0.0000    0.0000    0.0000 H   0  0  0  0  0  0  0  0  0  0  0  0
    0.0000    0.0000    0.0000 H   0  0  0  0  0  0  0  0  0  0  0  0
    0.0000    0.0000    0.0000 H   0  0  0  0  0  0  0  0  0  0  0  0
    0.0000    0.0000    0.0000 H   0  0  0  0  0  0  0  0  0  0  0  0
    0.0000    0.0000    0.0000 H   0  0  0  0  0  0  0  0  0  0  0  0
    0.0000    0.0000    0.0000 H   0  0  0  0  0  0  0  0  0  0  0  0
    0.0000    0.0000    0.0000 H   0  0  0  0  0  0  0  0  0  0  0  0
    0.0000    0.0000    0.0000 H   0  0  0  0  0  0  0  0  0  0  0  0
    0.0000    0.0000    0.0000 H   0  0  0  0  0  0  0  0  0  0  0  0
    0.0000    0.0000    0.0000 H   0  0  0  0  0  0  0  0  0  0  0  0
    0.0000    0.0000    0.0000 H   0  0  0  0  0  0  0  0  0  0  0  0
   12.5106    5.3083    9.1350 O   0  0  0  0  0  0  0  0  0  0  0  0
   12.8899    4.1713    8.3815 C   0  0  0  0  0  0  0  0  0  0  0  0
   11.6813    3.7790    7.5919 C   0  0  0  0  0  0  0  0  0  0  0  0
   11.8943    2.5765    6.7106 C   0  0  0  0  0  0  0  0  0  0  0  0
   12.9112    2.7195    5.7459 N   0  0  0  0  0  0  0  0  0  0  0  0
   13.0271    1.5631    4.9290 C   0  0  0  0  0  0  0  0  0  0  0  0
   13.1939    2.0204    3.5003 C   0  0  0  0  0  0  0  0  0  0  0  0
   13.0624    3.5175    3.5229 C   0  0  0  0  0  0  0  0  0  0  0  0
   12.9834    3.8972    4.9857 C   0  0  0  0  0  0  0  0  0  0  0  0
   13.7538    4.4758    7.7484 H   0  0  0  0  0  0  0  0  0  0  0  0
   13.1816    3.4077    9.1366 H   0  0  0  0  0  0  0  0  0  0  0  0
   10.9076    3.4641    8.3542 H   0  0  0  0  0  0  0  0  0  0  0  0
   11.2516    4.6351    7.0733 H   0  0  0  0  0  0  0  0  0  0  0  0
   10.8965    2.2880    6.3222 H   0  0  0  0  0  0  0  0  0  0  0  0
   12.1756    1.7336    7.4053 H   0  0  0  0  0  0  0  0  0  0  0  0
   13.9172    0.9880    5.2596 H   0  0  0  0  0  0  0  0  0  0  0  0
   12.1180    0.9256    4.9921 H   0  0  0  0  0  0  0  0  0  0  0  0
   12.4006    1.5871    2.8572 H   0  0  0  0  0  0  0  0  0  0  0  0
   14.1553    1.6863    3.0530 H   0  0  0  0  0  0  0  0  0  0  0  0
   12.1226    3.8573    3.0329 H   0  0  0  0  0  0  0  0  0  0  0  0
   13.9047    3.9883    3.0178 H   0  0  0  0  0  0  0  0  0  0  0  0
   12.2042    4.6460    5.1466 H   0  0  0  0  0  0  0  0  0  0  0  0
   13.9649    4.4015    5.2277 H   0  0  0  0  0  0  0  0  0  0  0  0
  1  3  2  0
  1  4  1  0
  1  5  1  0
  2  4  1  0
  2  6  1  0
  4  9  1  0
  4 15  1  0
  5  6  1  0
  5  8  1  0
  6  7  2  3
  9 10  2  0
  9 14  1  0
 10 11  1  0
 11 12  2  0
 12 13  1  0
 13 14  2  0
 15 16  2  0
 15 20  1  0
 16 17  1  0
 17 18  2  0
 18 19  1  0
 19 20  2  0
  2 21  1  0
  7 22  1  0
  8 23  1  0
  8 24  1  0
  8 25  1  0
 10 26  1  0
 11 27  1  0
 12 28  1  0
 13 29  1  0
 14 30  1  0
 16 31  1  0
 17 32  1  0
 19 33  1  0
 20 34  1  0
 35 36  1  0
 36 37  1  0
 37 38  1  0
 38 39  1  0
 39 40  1  0
 40 41  1  0
 41 42  1  0
 42 43  1  0
 43 39  1  0
 36 44  1  0
 36 45  1  0
 37 46  1  0
 37 47  1  0
 38 48  1  0
 38 49  1  0
 40 50  1  0
 40 51  1  0
 41 52  1  0
 41 53  1  0
 42 54  1  0
 42 55  1  0
 43 56  1  0
 43 57  1  0
 18 35  1  0
M  END
>  <attachment_point>  (414) 
32

>  <score>  (414) 
<NA>

$$$$
4djw
     RDKit          3D

 41 44  0  0  0  0  0  0  0  0999 V2000
   22.4950   11.8750   22.5810 C   0  0  0  0  0  0  0  0  0  0  0  0
   22.5380    9.4930   22.4640 N   0  0  0  0  0  0  0  0  0  0  0  0
   22.3600   13.0630   22.3480 O   0  0  0  0  0  0  0  0  0  0  0  0
   22.3390   10.6680   21.5610 C   0  0  0  0  0  0  0  0  0  0  0  0
   22.7860   11.3350   23.8120 N   0  0  0  0  0  0  0  0  0  0  0  0
   22.7800    9.9140   23.7010 C   0  0  0  0  0  0  0  0  0  0  0  0
   22.9970    9.1110   24.7490 N   0  0  0  0  0  0  0  0  0  0  0  0
   23.0220   12.1410   25.0180 C   0  0  0  0  0  0  0  0  0  0  0  0
   20.9020   10.6270   21.0050 C   0  0  0  0  0  0  0  0  0  0  0  0
   20.2720    9.4140   20.7470 C   0  0  0  0  0  0  0  0  0  0  0  0
   18.9690    9.3760   20.2600 C   0  0  0  0  0  0  0  0  0  0  0  0
   18.2800   10.5440   20.0210 C   0  0  0  0  0  0  0  0  0  0  0  0
   18.8920   11.7530   20.2590 C   0  0  0  0  0  0  0  0  0  0  0  0
   20.1950   11.7970   20.7440 C   0  0  0  0  0  0  0  0  0  0  0  0
   23.4880   10.6920   20.5300 C   0  0  0  0  0  0  0  0  0  0  0  0
   23.2110   10.7890   19.1730 C   0  0  0  0  0  0  0  0  0  0  0  0
   24.2350   10.8650   18.2430 C   0  0  0  0  0  0  0  0  0  0  0  0
   25.5500   10.8410   18.6560 C   0  0  0  0  0  0  0  0  0  0  0  0
   25.8710   10.7460   20.0070 C   0  0  0  0  0  0  0  0  0  0  0  0
   24.8260   10.6610   20.9430 C   0  0  0  0  0  0  0  0  0  0  0  0
    0.0000    0.0000    0.0000 H   0  0  0  0  0  0  0  0  0  0  0  0
    0.0000    0.0000    0.0000 H   0  0  0  0  0  0  0  0  0  0  0  0
    0.0000    0.0000    0.0000 H   0  0  0  0  0  0  0  0  0  0  0  0
    0.0000    0.0000    0.0000 H   0  0  0  0  0  0  0  0  0  0  0  0
    0.0000    0.0000    0.0000 H   0  0  0  0  0  0  0  0  0  0  0  0
    0.0000    0.0000    0.0000 H   0  0  0  0  0  0  0  0  0  0  0  0
    0.0000    0.0000    0.0000 H   0  0  0  0  0  0  0  0  0  0  0  0
    0.0000    0.0000    0.0000 H   0  0  0  0  0  0  0  0  0  0  0  0
    0.0000    0.0000    0.0000 H   0  0  0  0  0  0  0  0  0  0  0  0
    0.0000    0.0000    0.0000 H   0  0  0  0  0  0  0  0  0  0  0  0
    0.0000    0.0000    0.0000 H   0  0  0  0  0  0  0  0  0  0  0  0
    0.0000    0.0000    0.0000 H   0  0  0  0  0  0  0  0  0  0  0  0
    0.0000    0.0000    0.0000 H   0  0  0  0  0  0  0  0  0  0  0  0
    0.0000    0.0000    0.0000 H   0  0  0  0  0  0  0  0  0  0  0  0
   12.4013    5.2620    9.0552 C   0  0  0  0  0  0  0  0  0  0  0  0
   11.7166    4.1269    9.2206 C   0  0  0  0  0  0  0  0  0  0  0  0
   10.7481    3.8947    8.3726 N   0  0  0  0  0  0  0  0  0  0  0  0
   10.4916    4.7610    7.4169 C   0  0  0  0  0  0  0  0  0  0  0  0
   11.6789    5.9877    7.7144 S   0  0  0  0  0  0  0  0  0  0  0  0
   11.9520    3.4156   10.0315 H   0  0  0  0  0  0  0  0  0  0  0  0
    9.7221    4.6917    6.6524 H   0  0  0  0  0  0  0  0  0  0  0  0
  1  3  2  0
  1  4  1  0
  1  5  1  0
  2  4  1  0
  2  6  1  0
  4  9  1  0
  4 15  1  0
  5  6  1  0
  5  8  1  0
  6  7  2  3
  9 10  2  0
  9 14  1  0
 10 11  1  0
 11 12  2  0
 12 13  1  0
 13 14  2  0
 15 16  2  0
 15 20  1  0
 16 17  1  0
 17 18  2  0
 18 19  1  0
 19 20  2  0
  2 21  1  0
  7 22  1  0
  8 23  1  0
  8 24  1  0
  8 25  1  0
 10 26  1  0
 11 27  1  0
 12 28  1  0
 13 29  1  0
 14 30  1  0
 16 31  1  0
 17 32  1  0
 19 33  1  0
 20 34  1  0
 35 36  2  0
 36 37  1  0
 37 38  2  0
 38 39  1  0
 39 35  1  0
 36 40  1  0
 38 41  1  0
 18 35  1  0
M  END
>  <attachment_point>  (415) 
32

>  <score>  (415) 
<NA>

$$$$
4djw
     RDKit          3D

 52 56  0  0  0  0  0  0  0  0999 V2000
   22.4950   11.8750   22.5810 C   0  0  0  0  0  0  0  0  0  0  0  0
   22.5380    9.4930   22.4640 N   0  0  0  0  0  0  0  0  0  0  0  0
   22.3600   13.0630   22.3480 O   0  0  0  0  0  0  0  0  0  0  0  0
   22.3390   10.6680   21.5610 C   0  0  0  0  0  0  0  0  0  0  0  0
   22.7860   11.3350   23.8120 N   0  0  0  0  0  0  0  0  0  0  0  0
   22.7800    9.9140   23.7010 C   0  0  0  0  0  0  0  0  0  0  0  0
   22.9970    9.1110   24.7490 N   0  0  0  0  0  0  0  0  0  0  0  0
   23.0220   12.1410   25.0180 C   0  0  0  0  0  0  0  0  0  0  0  0
   20.9020   10.6270   21.0050 C   0  0  0  0  0  0  0  0  0  0  0  0
   20.2720    9.4140   20.7470 C   0  0  0  0  0  0  0  0  0  0  0  0
   18.9690    9.3760   20.2600 C   0  0  0  0  0  0  0  0  0  0  0  0
   18.2800   10.5440   20.0210 C   0  0  0  0  0  0  0  0  0  0  0  0
   18.8920   11.7530   20.2590 C   0  0  0  0  0  0  0  0  0  0  0  0
   20.1950   11.7970   20.7440 C   0  0  0  0  0  0  0  0  0  0  0  0
   23.4880   10.6920   20.5300 C   0  0  0  0  0  0  0  0  0  0  0  0
   23.2110   10.7890   19.1730 C   0  0  0  0  0  0  0  0  0  0  0  0
   24.2350   10.8650   18.2430 C   0  0  0  0  0  0  0  0  0  0  0  0
   25.5500   10.8410   18.6560 C   0  0  0  0  0  0  0  0  0  0  0  0
   25.8710   10.7460   20.0070 C   0  0  0  0  0  0  0  0  0  0  0  0
   24.8260   10.6610   20.9430 C   0  0  0  0  0  0  0  0  0  0  0  0
    0.0000    0.0000    0.0000 H   0  0  0  0  0  0  0  0  0  0  0  0
    0.0000    0.0000    0.0000 H   0  0  0  0  0  0  0  0  0  0  0  0
    0.0000    0.0000    0.0000 H   0  0  0  0  0  0  0  0  0  0  0  0
    0.0000    0.0000    0.0000 H   0  0  0  0  0  0  0  0  0  0  0  0
    0.0000    0.0000    0.0000 H   0  0  0  0  0  0  0  0  0  0  0  0
    0.0000    0.0000    0.0000 H   0  0  0  0  0  0  0  0  0  0  0  0
    0.0000    0.0000    0.0000 H   0  0  0  0  0  0  0  0  0  0  0  0
    0.0000    0.0000    0.0000 H   0  0  0  0  0  0  0  0  0  0  0  0
    0.0000    0.0000    0.0000 H   0  0  0  0  0  0  0  0  0  0  0  0
    0.0000    0.0000    0.0000 H   0  0  0  0  0  0  0  0  0  0  0  0
    0.0000    0.0000    0.0000 H   0  0  0  0  0  0  0  0  0  0  0  0
    0.0000    0.0000    0.0000 H   0  0  0  0  0  0  0  0  0  0  0  0
    0.0000    0.0000    0.0000 H   0  0  0  0  0  0  0  0  0  0  0  0
    0.0000    0.0000    0.0000 H   0  0  0  0  0  0  0  0  0  0  0  0
   12.4568    5.2855    9.0957 C   0  0  2  0  0  0  0  0  0  0  0  0
   12.0329    3.8650    9.1602 C   0  0  0  0  0  0  0  0  0  0  0  0
   12.7446    4.2903    7.9508 C   0  0  2  0  0  0  0  0  0  0  0  0
   14.1933    4.0390    7.7569 C   0  0  0  0  0  0  0  0  0  0  0  0
   14.8039    3.9653    6.5322 C   0  0  0  0  0  0  0  0  0  0  0  0
   16.1636    3.7265    6.4493 C   0  0  0  0  0  0  0  0  0  0  0  0
   16.9006    3.5637    7.5855 C   0  0  0  0  0  0  0  0  0  0  0  0
   16.3094    3.6332    8.8331 C   0  0  0  0  0  0  0  0  0  0  0  0
   14.9673    3.8697    8.8863 C   0  0  0  0  0  0  0  0  0  0  0  0
   11.6990    6.0621    8.8882 H   0  0  0  0  0  0  0  0  0  0  0  0
   12.5179    3.1404    9.8520 H   0  0  0  0  0  0  0  0  0  0  0  0
   10.9423    3.6365    9.0317 H   0  0  0  0  0  0  0  0  0  0  0  0
   12.1616    4.4205    7.0118 H   0  0  0  0  0  0  0  0  0  0  0  0
   14.1867    4.0994    5.6617 H   0  0  0  0  0  0  0  0  0  0  0  0
   16.6639    3.6650    5.4923 H   0  0  0  0  0  0  0  0  0  0  0  0
   17.9797    3.3737    7.5340 H   0  0  0  0  0  0  0  0  0  0  0  0
   16.8664    3.5082    9.7609 H   0  0  0  0  0  0  0  0  0  0  0  0
   14.5051    3.9234    9.8845 H   0  0  0  0  0  0  0  0  0  0  0  0
  1  3  2  0
  1  4  1  0
  1  5  1  0
  2  4  1  0
  2  6  1  0
  4  9  1  0
  4 15  1  0
  5  6  1  0
  5  8  1  0
  6  7  2  3
  9 10  2  0
  9 14  1  0
 10 11  1  0
 11 12  2  0
 12 13  1  0
 13 14  2  0
 15 16  2  0
 15 20  1  0
 16 17  1  0
 17 18  2  0
 18 19  1  0
 19 20  2  0
  2 21  1  0
  7 22  1  0
  8 23  1  0
  8 24  1  0
  8 25  1  0
 10 26  1  0
 11 27  1  0
 12 28  1  0
 13 29  1  0
 14 30  1  0
 16 31  1  0
 17 32  1  0
 19 33  1  0
 20 34  1  0
 35 36  1  0
 36 37  1  0
 37 38  1  0
 38 39  2  0
 39 40  1  0
 40 41  2  0
 41 42  1  0
 42 43  2  0
 37 35  1  0
 43 38  1  0
 35 44  1  1
 36 45  1  0
 36 46  1  0
 37 47  1  6
 39 48  1  0
 40 49  1  0
 41 50  1  0
 42 51  1  0
 43 52  1  0
 18 35  1  0
M  END
>  <attachment_point>  (416) 
32

>  <score>  (416) 
<NA>

$$$$
4djw
     RDKit          3D

 54 57  0  0  0  0  0  0  0  0999 V2000
   22.4950   11.8750   22.5810 C   0  0  0  0  0  0  0  0  0  0  0  0
   22.5380    9.4930   22.4640 N   0  0  0  0  0  0  0  0  0  0  0  0
   22.3600   13.0630   22.3480 O   0  0  0  0  0  0  0  0  0  0  0  0
   22.3390   10.6680   21.5610 C   0  0  0  0  0  0  0  0  0  0  0  0
   22.7860   11.3350   23.8120 N   0  0  0  0  0  0  0  0  0  0  0  0
   22.7800    9.9140   23.7010 C   0  0  0  0  0  0  0  0  0  0  0  0
   22.9970    9.1110   24.7490 N   0  0  0  0  0  0  0  0  0  0  0  0
   23.0220   12.1410   25.0180 C   0  0  0  0  0  0  0  0  0  0  0  0
   20.9020   10.6270   21.0050 C   0  0  0  0  0  0  0  0  0  0  0  0
   20.2720    9.4140   20.7470 C   0  0  0  0  0  0  0  0  0  0  0  0
   18.9690    9.3760   20.2600 C   0  0  0  0  0  0  0  0  0  0  0  0
   18.2800   10.5440   20.0210 C   0  0  0  0  0  0  0  0  0  0  0  0
   18.8920   11.7530   20.2590 C   0  0  0  0  0  0  0  0  0  0  0  0
   20.1950   11.7970   20.7440 C   0  0  0  0  0  0  0  0  0  0  0  0
   23.4880   10.6920   20.5300 C   0  0  0  0  0  0  0  0  0  0  0  0
   23.2110   10.7890   19.1730 C   0  0  0  0  0  0  0  0  0  0  0  0
   24.2350   10.8650   18.2430 C   0  0  0  0  0  0  0  0  0  0  0  0
   25.5500   10.8410   18.6560 C   0  0  0  0  0  0  0  0  0  0  0  0
   25.8710   10.7460   20.0070 C   0  0  0  0  0  0  0  0  0  0  0  0
   24.8260   10.6610   20.9430 C   0  0  0  0  0  0  0  0  0  0  0  0
    0.0000    0.0000    0.0000 H   0  0  0  0  0  0  0  0  0  0  0  0
    0.0000    0.0000    0.0000 H   0  0  0  0  0  0  0  0  0  0  0  0
    0.0000    0.0000    0.0000 H   0  0  0  0  0  0  0  0  0  0  0  0
    0.0000    0.0000    0.0000 H   0  0  0  0  0  0  0  0  0  0  0  0
    0.0000    0.0000    0.0000 H   0  0  0  0  0  0  0  0  0  0  0  0
    0.0000    0.0000    0.0000 H   0  0  0  0  0  0  0  0  0  0  0  0
    0.0000    0.0000    0.0000 H   0  0  0  0  0  0  0  0  0  0  0  0
    0.0000    0.0000    0.0000 H   0  0  0  0  0  0  0  0  0  0  0  0
    0.0000    0.0000    0.0000 H   0  0  0  0  0  0  0  0  0  0  0  0
    0.0000    0.0000    0.0000 H   0  0  0  0  0  0  0  0  0  0  0  0
    0.0000    0.0000    0.0000 H   0  0  0  0  0  0  0  0  0  0  0  0
    0.0000    0.0000    0.0000 H   0  0  0  0  0  0  0  0  0  0  0  0
    0.0000    0.0000    0.0000 H   0  0  0  0  0  0  0  0  0  0  0  0
    0.0000    0.0000    0.0000 H   0  0  0  0  0  0  0  0  0  0  0  0
   12.4467    5.2812    9.0883 C   0  0  0  0  0  0  0  0  0  0  0  0
   11.7763    6.0867    8.1879 C   0  0  0  0  0  0  0  0  0  0  0  0
   10.7272    5.5561    7.4540 C   0  0  0  0  0  0  0  0  0  0  0  0
   10.3268    4.2438    7.5924 C   0  0  0  0  0  0  0  0  0  0  0  0
    9.1835    3.6902    6.7835 C   0  0  0  0  0  0  0  0  0  0  0  0
    7.8971    4.4199    7.1178 C   0  0  0  0  0  0  0  0  0  0  0  0
    9.4752    3.7741    5.3096 C   0  0  0  0  0  0  0  0  0  0  0  0
   11.0195    3.4718    8.5001 C   0  0  0  0  0  0  0  0  0  0  0  0
   12.0695    3.9584    9.2512 C   0  0  0  0  0  0  0  0  0  0  0  0
   12.1024    7.1067    8.0935 H   0  0  0  0  0  0  0  0  0  0  0  0
   10.2207    6.2173    6.7539 H   0  0  0  0  0  0  0  0  0  0  0  0
    9.0213    2.6249    7.0408 H   0  0  0  0  0  0  0  0  0  0  0  0
    7.8025    5.3701    6.5447 H   0  0  0  0  0  0  0  0  0  0  0  0
    7.8760    4.6422    8.2198 H   0  0  0  0  0  0  0  0  0  0  0  0
    7.0654    3.7320    6.8580 H   0  0  0  0  0  0  0  0  0  0  0  0
    8.7609    3.1071    4.7826 H   0  0  0  0  0  0  0  0  0  0  0  0
   10.4892    3.3290    5.1408 H   0  0  0  0  0  0  0  0  0  0  0  0
    9.3946    4.7961    4.9158 H   0  0  0  0  0  0  0  0  0  0  0  0
   10.7093    2.4379    8.6137 H   0  0  0  0  0  0  0  0  0  0  0  0
   12.6089    3.3333    9.9671 H   0  0  0  0  0  0  0  0  0  0  0  0
  1  3  2  0
  1  4  1  0
  1  5  1  0
  2  4  1  0
  2  6  1  0
  4  9  1  0
  4 15  1  0
  5  6  1  0
  5  8  1  0
  6  7  2  3
  9 10  2  0
  9 14  1  0
 10 11  1  0
 11 12  2  0
 12 13  1  0
 13 14  2  0
 15 16  2  0
 15 20  1  0
 16 17  1  0
 17 18  2  0
 18 19  1  0
 19 20  2  0
  2 21  1  0
  7 22  1  0
  8 23  1  0
  8 24  1  0
  8 25  1  0
 10 26  1  0
 11 27  1  0
 12 28  1  0
 13 29  1  0
 14 30  1  0
 16 31  1  0
 17 32  1  0
 19 33  1  0
 20 34  1  0
 35 36  2  0
 36 37  1  0
 37 38  2  0
 38 39  1  0
 39 40  1  0
 39 41  1  0
 38 42  1  0
 42 43  2  0
 43 35  1  0
 36 44  1  0
 37 45  1  0
 39 46  1  0
 40 47  1  0
 40 48  1  0
 40 49  1  0
 41 50  1  0
 41 51  1  0
 41 52  1  0
 42 53  1  0
 43 54  1  0
 18 35  1  0
M  END
>  <attachment_point>  (417) 
32

>  <score>  (417) 
<NA>

$$$$
4djw
     RDKit          3D

 45 48  0  0  0  0  0  0  0  0999 V2000
   22.4950   11.8750   22.5810 C   0  0  0  0  0  0  0  0  0  0  0  0
   22.5380    9.4930   22.4640 N   0  0  0  0  0  0  0  0  0  0  0  0
   22.3600   13.0630   22.3480 O   0  0  0  0  0  0  0  0  0  0  0  0
   22.3390   10.6680   21.5610 C   0  0  0  0  0  0  0  0  0  0  0  0
   22.7860   11.3350   23.8120 N   0  0  0  0  0  0  0  0  0  0  0  0
   22.7800    9.9140   23.7010 C   0  0  0  0  0  0  0  0  0  0  0  0
   22.9970    9.1110   24.7490 N   0  0  0  0  0  0  0  0  0  0  0  0
   23.0220   12.1410   25.0180 C   0  0  0  0  0  0  0  0  0  0  0  0
   20.9020   10.6270   21.0050 C   0  0  0  0  0  0  0  0  0  0  0  0
   20.2720    9.4140   20.7470 C   0  0  0  0  0  0  0  0  0  0  0  0
   18.9690    9.3760   20.2600 C   0  0  0  0  0  0  0  0  0  0  0  0
   18.2800   10.5440   20.0210 C   0  0  0  0  0  0  0  0  0  0  0  0
   18.8920   11.7530   20.2590 C   0  0  0  0  0  0  0  0  0  0  0  0
   20.1950   11.7970   20.7440 C   0  0  0  0  0  0  0  0  0  0  0  0
   23.4880   10.6920   20.5300 C   0  0  0  0  0  0  0  0  0  0  0  0
   23.2110   10.7890   19.1730 C   0  0  0  0  0  0  0  0  0  0  0  0
   24.2350   10.8650   18.2430 C   0  0  0  0  0  0  0  0  0  0  0  0
   25.5500   10.8410   18.6560 C   0  0  0  0  0  0  0  0  0  0  0  0
   25.8710   10.7460   20.0070 C   0  0  0  0  0  0  0  0  0  0  0  0
   24.8260   10.6610   20.9430 C   0  0  0  0  0  0  0  0  0  0  0  0
    0.0000    0.0000    0.0000 H   0  0  0  0  0  0  0  0  0  0  0  0
    0.0000    0.0000    0.0000 H   0  0  0  0  0  0  0  0  0  0  0  0
    0.0000    0.0000    0.0000 H   0  0  0  0  0  0  0  0  0  0  0  0
    0.0000    0.0000    0.0000 H   0  0  0  0  0  0  0  0  0  0  0  0
    0.0000    0.0000    0.0000 H   0  0  0  0  0  0  0  0  0  0  0  0
    0.0000    0.0000    0.0000 H   0  0  0  0  0  0  0  0  0  0  0  0
    0.0000    0.0000    0.0000 H   0  0  0  0  0  0  0  0  0  0  0  0
    0.0000    0.0000    0.0000 H   0  0  0  0  0  0  0  0  0  0  0  0
    0.0000    0.0000    0.0000 H   0  0  0  0  0  0  0  0  0  0  0  0
    0.0000    0.0000    0.0000 H   0  0  0  0  0  0  0  0  0  0  0  0
    0.0000    0.0000    0.0000 H   0  0  0  0  0  0  0  0  0  0  0  0
    0.0000    0.0000    0.0000 H   0  0  0  0  0  0  0  0  0  0  0  0
    0.0000    0.0000    0.0000 H   0  0  0  0  0  0  0  0  0  0  0  0
    0.0000    0.0000    0.0000 H   0  0  0  0  0  0  0  0  0  0  0  0
   12.4153    5.2679    9.0653 C   0  0  0  0  0  0  0  0  0  0  0  0
   11.1429    5.4275    9.5090 C   0  0  0  0  0  0  0  0  0  0  0  0
   10.9078    6.0273   10.7105 F   0  0  0  0  0  0  0  0  0  0  0  0
   10.0994    4.9695    8.7175 C   0  0  0  0  0  0  0  0  0  0  0  0
   10.3181    4.3614    7.5017 C   0  0  0  0  0  0  0  0  0  0  0  0
   11.6199    4.2155    7.0818 C   0  0  0  0  0  0  0  0  0  0  0  0
   12.6804    4.6715    7.8680 C   0  0  0  0  0  0  0  0  0  0  0  0
   13.9607    4.5207    7.4406 F   0  0  0  0  0  0  0  0  0  0  0  0
    9.1024    5.0949    9.0658 H   0  0  0  0  0  0  0  0  0  0  0  0
    9.5185    3.9986    6.8720 H   0  0  0  0  0  0  0  0  0  0  0  0
   11.8235    3.7497    6.1470 H   0  0  0  0  0  0  0  0  0  0  0  0
  1  3  2  0
  1  4  1  0
  1  5  1  0
  2  4  1  0
  2  6  1  0
  4  9  1  0
  4 15  1  0
  5  6  1  0
  5  8  1  0
  6  7  2  3
  9 10  2  0
  9 14  1  0
 10 11  1  0
 11 12  2  0
 12 13  1  0
 13 14  2  0
 15 16  2  0
 15 20  1  0
 16 17  1  0
 17 18  2  0
 18 19  1  0
 19 20  2  0
  2 21  1  0
  7 22  1  0
  8 23  1  0
  8 24  1  0
  8 25  1  0
 10 26  1  0
 11 27  1  0
 12 28  1  0
 13 29  1  0
 14 30  1  0
 16 31  1  0
 17 32  1  0
 19 33  1  0
 20 34  1  0
 35 36  2  0
 36 37  1  0
 36 38  1  0
 38 39  2  0
 39 40  1  0
 40 41  2  0
 41 42  1  0
 41 35  1  0
 38 43  1  0
 39 44  1  0
 40 45  1  0
 18 35  1  0
M  END
>  <attachment_point>  (418) 
32

>  <score>  (418) 
<NA>

$$$$
4djw
     RDKit          3D

 49 52  0  0  0  0  0  0  0  0999 V2000
   22.4950   11.8750   22.5810 C   0  0  0  0  0  0  0  0  0  0  0  0
   22.5380    9.4930   22.4640 N   0  0  0  0  0  0  0  0  0  0  0  0
   22.3600   13.0630   22.3480 O   0  0  0  0  0  0  0  0  0  0  0  0
   22.3390   10.6680   21.5610 C   0  0  0  0  0  0  0  0  0  0  0  0
   22.7860   11.3350   23.8120 N   0  0  0  0  0  0  0  0  0  0  0  0
   22.7800    9.9140   23.7010 C   0  0  0  0  0  0  0  0  0  0  0  0
   22.9970    9.1110   24.7490 N   0  0  0  0  0  0  0  0  0  0  0  0
   23.0220   12.1410   25.0180 C   0  0  0  0  0  0  0  0  0  0  0  0
   20.9020   10.6270   21.0050 C   0  0  0  0  0  0  0  0  0  0  0  0
   20.2720    9.4140   20.7470 C   0  0  0  0  0  0  0  0  0  0  0  0
   18.9690    9.3760   20.2600 C   0  0  0  0  0  0  0  0  0  0  0  0
   18.2800   10.5440   20.0210 C   0  0  0  0  0  0  0  0  0  0  0  0
   18.8920   11.7530   20.2590 C   0  0  0  0  0  0  0  0  0  0  0  0
   20.1950   11.7970   20.7440 C   0  0  0  0  0  0  0  0  0  0  0  0
   23.4880   10.6920   20.5300 C   0  0  0  0  0  0  0  0  0  0  0  0
   23.2110   10.7890   19.1730 C   0  0  0  0  0  0  0  0  0  0  0  0
   24.2350   10.8650   18.2430 C   0  0  0  0  0  0  0  0  0  0  0  0
   25.5500   10.8410   18.6560 C   0  0  0  0  0  0  0  0  0  0  0  0
   25.8710   10.7460   20.0070 C   0  0  0  0  0  0  0  0  0  0  0  0
   24.8260   10.6610   20.9430 C   0  0  0  0  0  0  0  0  0  0  0  0
    0.0000    0.0000    0.0000 H   0  0  0  0  0  0  0  0  0  0  0  0
    0.0000    0.0000    0.0000 H   0  0  0  0  0  0  0  0  0  0  0  0
    0.0000    0.0000    0.0000 H   0  0  0  0  0  0  0  0  0  0  0  0
    0.0000    0.0000    0.0000 H   0  0  0  0  0  0  0  0  0  0  0  0
    0.0000    0.0000    0.0000 H   0  0  0  0  0  0  0  0  0  0  0  0
    0.0000    0.0000    0.0000 H   0  0  0  0  0  0  0  0  0  0  0  0
    0.0000    0.0000    0.0000 H   0  0  0  0  0  0  0  0  0  0  0  0
    0.0000    0.0000    0.0000 H   0  0  0  0  0  0  0  0  0  0  0  0
    0.0000    0.0000    0.0000 H   0  0  0  0  0  0  0  0  0  0  0  0
    0.0000    0.0000    0.0000 H   0  0  0  0  0  0  0  0  0  0  0  0
    0.0000    0.0000    0.0000 H   0  0  0  0  0  0  0  0  0  0  0  0
    0.0000    0.0000    0.0000 H   0  0  0  0  0  0  0  0  0  0  0  0
    0.0000    0.0000    0.0000 H   0  0  0  0  0  0  0  0  0  0  0  0
    0.0000    0.0000    0.0000 H   0  0  0  0  0  0  0  0  0  0  0  0
   12.4511    5.2830    9.0915 C   0  0  0  0  0  0  0  0  0  0  0  0
   13.0474    4.8678    7.7556 C   0  0  2  0  0  0  0  0  0  0  0  0
   14.0530    3.7901    7.9199 C   0  0  0  0  0  0  0  0  0  0  0  0
   15.2079    4.2568    7.0635 C   0  0  0  0  0  0  0  0  0  0  0  0
   14.8899    5.6962    6.7906 C   0  0  0  0  0  0  0  0  0  0  0  0
   13.6148    5.9568    7.1820 O   0  0  0  0  0  0  0  0  0  0  0  0
   11.7283    6.1054    8.9789 H   0  0  0  0  0  0  0  0  0  0  0  0
   11.9155    4.4208    9.5158 H   0  0  0  0  0  0  0  0  0  0  0  0
   12.2290    4.4738    7.0868 H   0  0  0  0  0  0  0  0  0  0  0  0
   14.3419    3.6141    8.9749 H   0  0  0  0  0  0  0  0  0  0  0  0
   13.6943    2.8023    7.5217 H   0  0  0  0  0  0  0  0  0  0  0  0
   15.1912    3.7143    6.0925 H   0  0  0  0  0  0  0  0  0  0  0  0
   16.1821    4.1067    7.5441 H   0  0  0  0  0  0  0  0  0  0  0  0
   15.6258    6.4013    7.2724 H   0  0  0  0  0  0  0  0  0  0  0  0
   14.9629    5.9399    5.6901 H   0  0  0  0  0  0  0  0  0  0  0  0
  1  3  2  0
  1  4  1  0
  1  5  1  0
  2  4  1  0
  2  6  1  0
  4  9  1  0
  4 15  1  0
  5  6  1  0
  5  8  1  0
  6  7  2  3
  9 10  2  0
  9 14  1  0
 10 11  1  0
 11 12  2  0
 12 13  1  0
 13 14  2  0
 15 16  2  0
 15 20  1  0
 16 17  1  0
 17 18  2  0
 18 19  1  0
 19 20  2  0
  2 21  1  0
  7 22  1  0
  8 23  1  0
  8 24  1  0
  8 25  1  0
 10 26  1  0
 11 27  1  0
 12 28  1  0
 13 29  1  0
 14 30  1  0
 16 31  1  0
 17 32  1  0
 19 33  1  0
 20 34  1  0
 35 36  1  0
 36 37  1  0
 37 38  1  0
 38 39  1  0
 39 40  1  0
 40 36  1  0
 35 41  1  0
 35 42  1  0
 36 43  1  6
 37 44  1  0
 37 45  1  0
 38 46  1  0
 38 47  1  0
 39 48  1  0
 39 49  1  0
 18 35  1  0
M  END
>  <attachment_point>  (419) 
32

>  <score>  (419) 
<NA>

$$$$
4djw
     RDKit          3D

 49 51  0  0  0  0  0  0  0  0999 V2000
   22.4950   11.8750   22.5810 C   0  0  0  0  0  0  0  0  0  0  0  0
   22.5380    9.4930   22.4640 N   0  0  0  0  0  0  0  0  0  0  0  0
   22.3600   13.0630   22.3480 O   0  0  0  0  0  0  0  0  0  0  0  0
   22.3390   10.6680   21.5610 C   0  0  0  0  0  0  0  0  0  0  0  0
   22.7860   11.3350   23.8120 N   0  0  0  0  0  0  0  0  0  0  0  0
   22.7800    9.9140   23.7010 C   0  0  0  0  0  0  0  0  0  0  0  0
   22.9970    9.1110   24.7490 N   0  0  0  0  0  0  0  0  0  0  0  0
   23.0220   12.1410   25.0180 C   0  0  0  0  0  0  0  0  0  0  0  0
   20.9020   10.6270   21.0050 C   0  0  0  0  0  0  0  0  0  0  0  0
   20.2720    9.4140   20.7470 C   0  0  0  0  0  0  0  0  0  0  0  0
   18.9690    9.3760   20.2600 C   0  0  0  0  0  0  0  0  0  0  0  0
   18.2800   10.5440   20.0210 C   0  0  0  0  0  0  0  0  0  0  0  0
   18.8920   11.7530   20.2590 C   0  0  0  0  0  0  0  0  0  0  0  0
   20.1950   11.7970   20.7440 C   0  0  0  0  0  0  0  0  0  0  0  0
   23.4880   10.6920   20.5300 C   0  0  0  0  0  0  0  0  0  0  0  0
   23.2110   10.7890   19.1730 C   0  0  0  0  0  0  0  0  0  0  0  0
   24.2350   10.8650   18.2430 C   0  0  0  0  0  0  0  0  0  0  0  0
   25.5500   10.8410   18.6560 C   0  0  0  0  0  0  0  0  0  0  0  0
   25.8710   10.7460   20.0070 C   0  0  0  0  0  0  0  0  0  0  0  0
   24.8260   10.6610   20.9430 C   0  0  0  0  0  0  0  0  0  0  0  0
    0.0000    0.0000    0.0000 H   0  0  0  0  0  0  0  0  0  0  0  0
    0.0000    0.0000    0.0000 H   0  0  0  0  0  0  0  0  0  0  0  0
    0.0000    0.0000    0.0000 H   0  0  0  0  0  0  0  0  0  0  0  0
    0.0000    0.0000    0.0000 H   0  0  0  0  0  0  0  0  0  0  0  0
    0.0000    0.0000    0.0000 H   0  0  0  0  0  0  0  0  0  0  0  0
    0.0000    0.0000    0.0000 H   0  0  0  0  0  0  0  0  0  0  0  0
    0.0000    0.0000    0.0000 H   0  0  0  0  0  0  0  0  0  0  0  0
    0.0000    0.0000    0.0000 H   0  0  0  0  0  0  0  0  0  0  0  0
    0.0000    0.0000    0.0000 H   0  0  0  0  0  0  0  0  0  0  0  0
    0.0000    0.0000    0.0000 H   0  0  0  0  0  0  0  0  0  0  0  0
    0.0000    0.0000    0.0000 H   0  0  0  0  0  0  0  0  0  0  0  0
    0.0000    0.0000    0.0000 H   0  0  0  0  0  0  0  0  0  0  0  0
    0.0000    0.0000    0.0000 H   0  0  0  0  0  0  0  0  0  0  0  0
    0.0000    0.0000    0.0000 H   0  0  0  0  0  0  0  0  0  0  0  0
   12.4602    5.2869    9.0981 C   0  0  0  0  0  0  0  0  0  0  0  0
   11.4550    4.7529    9.9880 N   0  0  0  0  0  0  0  0  0  0  0  0
   10.3366    4.2765    9.2000 C   0  0  0  0  0  0  0  0  0  0  0  0
    9.7960    5.4516    8.4275 C   0  0  0  0  0  0  0  0  0  0  0  0
    9.3212    3.6624   10.1215 C   0  0  0  0  0  0  0  0  0  0  0  0
   12.7321    4.4919    8.3854 H   0  0  0  0  0  0  0  0  0  0  0  0
   11.9865    6.1717    8.5925 H   0  0  0  0  0  0  0  0  0  0  0  0
   11.8227    4.0287   10.6278 H   0  0  0  0  0  0  0  0  0  0  0  0
   10.6378    3.4964    8.4602 H   0  0  0  0  0  0  0  0  0  0  0  0
    9.9490    6.4238    8.9634 H   0  0  0  0  0  0  0  0  0  0  0  0
   10.4000    5.5254    7.4847 H   0  0  0  0  0  0  0  0  0  0  0  0
    8.7140    5.3559    8.2117 H   0  0  0  0  0  0  0  0  0  0  0  0
    9.6852    3.6795   11.1845 H   0  0  0  0  0  0  0  0  0  0  0  0
    9.1269    2.5909    9.8793 H   0  0  0  0  0  0  0  0  0  0  0  0
    8.3519    4.1683   10.1250 H   0  0  0  0  0  0  0  0  0  0  0  0
  1  3  2  0
  1  4  1  0
  1  5  1  0
  2  4  1  0
  2  6  1  0
  4  9  1  0
  4 15  1  0
  5  6  1  0
  5  8  1  0
  6  7  2  3
  9 10  2  0
  9 14  1  0
 10 11  1  0
 11 12  2  0
 12 13  1  0
 13 14  2  0
 15 16  2  0
 15 20  1  0
 16 17  1  0
 17 18  2  0
 18 19  1  0
 19 20  2  0
  2 21  1  0
  7 22  1  0
  8 23  1  0
  8 24  1  0
  8 25  1  0
 10 26  1  0
 11 27  1  0
 12 28  1  0
 13 29  1  0
 14 30  1  0
 16 31  1  0
 17 32  1  0
 19 33  1  0
 20 34  1  0
 35 36  1  0
 36 37  1  0
 37 38  1  0
 37 39  1  0
 35 40  1  0
 35 41  1  0
 36 42  1  0
 37 43  1  0
 38 44  1  0
 38 45  1  0
 38 46  1  0
 39 47  1  0
 39 48  1  0
 39 49  1  0
 18 35  1  0
M  END
>  <attachment_point>  (420) 
32

>  <score>  (420) 
<NA>

$$$$
4djw
     RDKit          3D

 46 48  0  0  0  0  0  0  0  0999 V2000
   22.4950   11.8750   22.5810 C   0  0  0  0  0  0  0  0  0  0  0  0
   22.5380    9.4930   22.4640 N   0  0  0  0  0  0  0  0  0  0  0  0
   22.3600   13.0630   22.3480 O   0  0  0  0  0  0  0  0  0  0  0  0
   22.3390   10.6680   21.5610 C   0  0  0  0  0  0  0  0  0  0  0  0
   22.7860   11.3350   23.8120 N   0  0  0  0  0  0  0  0  0  0  0  0
   22.7800    9.9140   23.7010 C   0  0  0  0  0  0  0  0  0  0  0  0
   22.9970    9.1110   24.7490 N   0  0  0  0  0  0  0  0  0  0  0  0
   23.0220   12.1410   25.0180 C   0  0  0  0  0  0  0  0  0  0  0  0
   20.9020   10.6270   21.0050 C   0  0  0  0  0  0  0  0  0  0  0  0
   20.2720    9.4140   20.7470 C   0  0  0  0  0  0  0  0  0  0  0  0
   18.9690    9.3760   20.2600 C   0  0  0  0  0  0  0  0  0  0  0  0
   18.2800   10.5440   20.0210 C   0  0  0  0  0  0  0  0  0  0  0  0
   18.8920   11.7530   20.2590 C   0  0  0  0  0  0  0  0  0  0  0  0
   20.1950   11.7970   20.7440 C   0  0  0  0  0  0  0  0  0  0  0  0
   23.4880   10.6920   20.5300 C   0  0  0  0  0  0  0  0  0  0  0  0
   23.2110   10.7890   19.1730 C   0  0  0  0  0  0  0  0  0  0  0  0
   24.2350   10.8650   18.2430 C   0  0  0  0  0  0  0  0  0  0  0  0
   25.5500   10.8410   18.6560 C   0  0  0  0  0  0  0  0  0  0  0  0
   25.8710   10.7460   20.0070 C   0  0  0  0  0  0  0  0  0  0  0  0
   24.8260   10.6610   20.9430 C   0  0  0  0  0  0  0  0  0  0  0  0
    0.0000    0.0000    0.0000 H   0  0  0  0  0  0  0  0  0  0  0  0
    0.0000    0.0000    0.0000 H   0  0  0  0  0  0  0  0  0  0  0  0
    0.0000    0.0000    0.0000 H   0  0  0  0  0  0  0  0  0  0  0  0
    0.0000    0.0000    0.0000 H   0  0  0  0  0  0  0  0  0  0  0  0
    0.0000    0.0000    0.0000 H   0  0  0  0  0  0  0  0  0  0  0  0
    0.0000    0.0000    0.0000 H   0  0  0  0  0  0  0  0  0  0  0  0
    0.0000    0.0000    0.0000 H   0  0  0  0  0  0  0  0  0  0  0  0
    0.0000    0.0000    0.0000 H   0  0  0  0  0  0  0  0  0  0  0  0
    0.0000    0.0000    0.0000 H   0  0  0  0  0  0  0  0  0  0  0  0
    0.0000    0.0000    0.0000 H   0  0  0  0  0  0  0  0  0  0  0  0
    0.0000    0.0000    0.0000 H   0  0  0  0  0  0  0  0  0  0  0  0
    0.0000    0.0000    0.0000 H   0  0  0  0  0  0  0  0  0  0  0  0
    0.0000    0.0000    0.0000 H   0  0  0  0  0  0  0  0  0  0  0  0
    0.0000    0.0000    0.0000 H   0  0  0  0  0  0  0  0  0  0  0  0
   12.4402    5.2784    9.0835 C   0  0  0  0  0  0  0  0  0  0  0  0
   12.0454    3.8886    9.5695 C   0  0  2  0  0  0  0  0  0  0  0  0
   11.6608    4.0077   10.9504 N   0  0  0  0  0  0  0  0  0  0  0  0
   13.1810    2.9416    9.4365 C   0  0  0  0  0  0  0  0  0  0  0  0
   13.6804    2.6868    8.3086 O   0  0  0  0  0  0  0  0  0  0  0  0
   13.6996    2.3291   10.5680 O   0  0  0  0  0  0  0  0  0  0  0  0
   12.6892    5.2927    8.0165 H   0  0  0  0  0  0  0  0  0  0  0  0
   11.5782    5.9411    9.3450 H   0  0  0  0  0  0  0  0  0  0  0  0
   11.2086    3.4982    8.9785 H   0  0  0  0  0  0  0  0  0  0  0  0
   10.9738    3.3021   11.2577 H   0  0  0  0  0  0  0  0  0  0  0  0
   12.4404    4.1750   11.5958 H   0  0  0  0  0  0  0  0  0  0  0  0
   14.0960    1.3861   10.4472 H   0  0  0  0  0  0  0  0  0  0  0  0
  1  3  2  0
  1  4  1  0
  1  5  1  0
  2  4  1  0
  2  6  1  0
  4  9  1  0
  4 15  1  0
  5  6  1  0
  5  8  1  0
  6  7  2  3
  9 10  2  0
  9 14  1  0
 10 11  1  0
 11 12  2  0
 12 13  1  0
 13 14  2  0
 15 16  2  0
 15 20  1  0
 16 17  1  0
 17 18  2  0
 18 19  1  0
 19 20  2  0
  2 21  1  0
  7 22  1  0
  8 23  1  0
  8 24  1  0
  8 25  1  0
 10 26  1  0
 11 27  1  0
 12 28  1  0
 13 29  1  0
 14 30  1  0
 16 31  1  0
 17 32  1  0
 19 33  1  0
 20 34  1  0
 35 36  1  0
 36 37  1  0
 36 38  1  0
 38 39  2  0
 38 40  1  0
 35 41  1  0
 35 42  1  0
 36 43  1  6
 37 44  1  0
 37 45  1  0
 40 46  1  0
 18 35  1  0
M  END
>  <attachment_point>  (421) 
32

>  <score>  (421) 
<NA>

$$$$
4djw
     RDKit          3D

 47 50  0  0  0  0  0  0  0  0999 V2000
   22.4950   11.8750   22.5810 C   0  0  0  0  0  0  0  0  0  0  0  0
   22.5380    9.4930   22.4640 N   0  0  0  0  0  0  0  0  0  0  0  0
   22.3600   13.0630   22.3480 O   0  0  0  0  0  0  0  0  0  0  0  0
   22.3390   10.6680   21.5610 C   0  0  0  0  0  0  0  0  0  0  0  0
   22.7860   11.3350   23.8120 N   0  0  0  0  0  0  0  0  0  0  0  0
   22.7800    9.9140   23.7010 C   0  0  0  0  0  0  0  0  0  0  0  0
   22.9970    9.1110   24.7490 N   0  0  0  0  0  0  0  0  0  0  0  0
   23.0220   12.1410   25.0180 C   0  0  0  0  0  0  0  0  0  0  0  0
   20.9020   10.6270   21.0050 C   0  0  0  0  0  0  0  0  0  0  0  0
   20.2720    9.4140   20.7470 C   0  0  0  0  0  0  0  0  0  0  0  0
   18.9690    9.3760   20.2600 C   0  0  0  0  0  0  0  0  0  0  0  0
   18.2800   10.5440   20.0210 C   0  0  0  0  0  0  0  0  0  0  0  0
   18.8920   11.7530   20.2590 C   0  0  0  0  0  0  0  0  0  0  0  0
   20.1950   11.7970   20.7440 C   0  0  0  0  0  0  0  0  0  0  0  0
   23.4880   10.6920   20.5300 C   0  0  0  0  0  0  0  0  0  0  0  0
   23.2110   10.7890   19.1730 C   0  0  0  0  0  0  0  0  0  0  0  0
   24.2350   10.8650   18.2430 C   0  0  0  0  0  0  0  0  0  0  0  0
   25.5500   10.8410   18.6560 C   0  0  0  0  0  0  0  0  0  0  0  0
   25.8710   10.7460   20.0070 C   0  0  0  0  0  0  0  0  0  0  0  0
   24.8260   10.6610   20.9430 C   0  0  0  0  0  0  0  0  0  0  0  0
    0.0000    0.0000    0.0000 H   0  0  0  0  0  0  0  0  0  0  0  0
    0.0000    0.0000    0.0000 H   0  0  0  0  0  0  0  0  0  0  0  0
    0.0000    0.0000    0.0000 H   0  0  0  0  0  0  0  0  0  0  0  0
    0.0000    0.0000    0.0000 H   0  0  0  0  0  0  0  0  0  0  0  0
    0.0000    0.0000    0.0000 H   0  0  0  0  0  0  0  0  0  0  0  0
    0.0000    0.0000    0.0000 H   0  0  0  0  0  0  0  0  0  0  0  0
    0.0000    0.0000    0.0000 H   0  0  0  0  0  0  0  0  0  0  0  0
    0.0000    0.0000    0.0000 H   0  0  0  0  0  0  0  0  0  0  0  0
    0.0000    0.0000    0.0000 H   0  0  0  0  0  0  0  0  0  0  0  0
    0.0000    0.0000    0.0000 H   0  0  0  0  0  0  0  0  0  0  0  0
    0.0000    0.0000    0.0000 H   0  0  0  0  0  0  0  0  0  0  0  0
    0.0000    0.0000    0.0000 H   0  0  0  0  0  0  0  0  0  0  0  0
    0.0000    0.0000    0.0000 H   0  0  0  0  0  0  0  0  0  0  0  0
    0.0000    0.0000    0.0000 H   0  0  0  0  0  0  0  0  0  0  0  0
   12.4430    5.2796    9.0856 C   0  0  0  0  0  0  0  0  0  0  0  0
   11.6385    6.1512    8.3845 C   0  0  0  0  0  0  0  0  0  0  0  0
   10.6022    5.6314    7.6353 C   0  0  0  0  0  0  0  0  0  0  0  0
   10.3385    4.2799    7.5589 C   0  0  0  0  0  0  0  0  0  0  0  0
    9.2063    3.7420    6.7375 C   0  0  0  0  0  0  0  0  0  0  0  0
    8.0522    3.6180    7.4515 F   0  0  0  0  0  0  0  0  0  0  0  0
    9.0051    4.5235    5.5992 F   0  0  0  0  0  0  0  0  0  0  0  0
    9.5330    2.4719    6.2457 F   0  0  0  0  0  0  0  0  0  0  0  0
   11.1416    3.4540    8.2547 N   0  0  0  0  0  0  0  0  0  0  0  0
   12.1581    3.9366    8.9921 C   0  0  0  0  0  0  0  0  0  0  0  0
   11.8500    7.2048    8.4486 H   0  0  0  0  0  0  0  0  0  0  0  0
    9.9596    6.2951    7.0782 H   0  0  0  0  0  0  0  0  0  0  0  0
   12.8099    3.2619    9.5573 H   0  0  0  0  0  0  0  0  0  0  0  0
  1  3  2  0
  1  4  1  0
  1  5  1  0
  2  4  1  0
  2  6  1  0
  4  9  1  0
  4 15  1  0
  5  6  1  0
  5  8  1  0
  6  7  2  3
  9 10  2  0
  9 14  1  0
 10 11  1  0
 11 12  2  0
 12 13  1  0
 13 14  2  0
 15 16  2  0
 15 20  1  0
 16 17  1  0
 17 18  2  0
 18 19  1  0
 19 20  2  0
  2 21  1  0
  7 22  1  0
  8 23  1  0
  8 24  1  0
  8 25  1  0
 10 26  1  0
 11 27  1  0
 12 28  1  0
 13 29  1  0
 14 30  1  0
 16 31  1  0
 17 32  1  0
 19 33  1  0
 20 34  1  0
 35 36  2  0
 36 37  1  0
 37 38  2  0
 38 39  1  0
 39 40  1  0
 39 41  1  0
 39 42  1  0
 38 43  1  0
 43 44  2  0
 44 35  1  0
 36 45  1  0
 37 46  1  0
 44 47  1  0
 18 35  1  0
M  END
>  <attachment_point>  (422) 
32

>  <score>  (422) 
<NA>

$$$$
4djw
     RDKit          3D

 48 51  0  0  0  0  0  0  0  0999 V2000
   22.4950   11.8750   22.5810 C   0  0  0  0  0  0  0  0  0  0  0  0
   22.5380    9.4930   22.4640 N   0  0  0  0  0  0  0  0  0  0  0  0
   22.3600   13.0630   22.3480 O   0  0  0  0  0  0  0  0  0  0  0  0
   22.3390   10.6680   21.5610 C   0  0  0  0  0  0  0  0  0  0  0  0
   22.7860   11.3350   23.8120 N   0  0  0  0  0  0  0  0  0  0  0  0
   22.7800    9.9140   23.7010 C   0  0  0  0  0  0  0  0  0  0  0  0
   22.9970    9.1110   24.7490 N   0  0  0  0  0  0  0  0  0  0  0  0
   23.0220   12.1410   25.0180 C   0  0  0  0  0  0  0  0  0  0  0  0
   20.9020   10.6270   21.0050 C   0  0  0  0  0  0  0  0  0  0  0  0
   20.2720    9.4140   20.7470 C   0  0  0  0  0  0  0  0  0  0  0  0
   18.9690    9.3760   20.2600 C   0  0  0  0  0  0  0  0  0  0  0  0
   18.2800   10.5440   20.0210 C   0  0  0  0  0  0  0  0  0  0  0  0
   18.8920   11.7530   20.2590 C   0  0  0  0  0  0  0  0  0  0  0  0
   20.1950   11.7970   20.7440 C   0  0  0  0  0  0  0  0  0  0  0  0
   23.4880   10.6920   20.5300 C   0  0  0  0  0  0  0  0  0  0  0  0
   23.2110   10.7890   19.1730 C   0  0  0  0  0  0  0  0  0  0  0  0
   24.2350   10.8650   18.2430 C   0  0  0  0  0  0  0  0  0  0  0  0
   25.5500   10.8410   18.6560 C   0  0  0  0  0  0  0  0  0  0  0  0
   25.8710   10.7460   20.0070 C   0  0  0  0  0  0  0  0  0  0  0  0
   24.8260   10.6610   20.9430 C   0  0  0  0  0  0  0  0  0  0  0  0
    0.0000    0.0000    0.0000 H   0  0  0  0  0  0  0  0  0  0  0  0
    0.0000    0.0000    0.0000 H   0  0  0  0  0  0  0  0  0  0  0  0
    0.0000    0.0000    0.0000 H   0  0  0  0  0  0  0  0  0  0  0  0
    0.0000    0.0000    0.0000 H   0  0  0  0  0  0  0  0  0  0  0  0
    0.0000    0.0000    0.0000 H   0  0  0  0  0  0  0  0  0  0  0  0
    0.0000    0.0000    0.0000 H   0  0  0  0  0  0  0  0  0  0  0  0
    0.0000    0.0000    0.0000 H   0  0  0  0  0  0  0  0  0  0  0  0
    0.0000    0.0000    0.0000 H   0  0  0  0  0  0  0  0  0  0  0  0
    0.0000    0.0000    0.0000 H   0  0  0  0  0  0  0  0  0  0  0  0
    0.0000    0.0000    0.0000 H   0  0  0  0  0  0  0  0  0  0  0  0
    0.0000    0.0000    0.0000 H   0  0  0  0  0  0  0  0  0  0  0  0
    0.0000    0.0000    0.0000 H   0  0  0  0  0  0  0  0  0  0  0  0
    0.0000    0.0000    0.0000 H   0  0  0  0  0  0  0  0  0  0  0  0
    0.0000    0.0000    0.0000 H   0  0  0  0  0  0  0  0  0  0  0  0
   12.4442    5.2801    9.0864 C   0  0  0  0  0  0  0  0  0  0  0  0
   11.4817    4.5145    9.6029 C   0  0  0  0  0  0  0  0  0  0  0  0
   10.3895    4.0840    8.6927 C   0  0  0  0  0  0  0  0  0  0  0  0
    9.9186    5.1808    7.9130 N   0  0  0  0  0  0  0  0  0  0  0  0
   10.9132    5.9843    7.3053 C   0  0  0  0  0  0  0  0  0  0  0  0
   12.3289    5.6266    7.6528 C   0  0  0  0  0  0  0  0  0  0  0  0
   11.4821    4.2098   10.6434 H   0  0  0  0  0  0  0  0  0  0  0  0
   10.7860    3.2743    8.0267 H   0  0  0  0  0  0  0  0  0  0  0  0
    9.5560    3.6433    9.2679 H   0  0  0  0  0  0  0  0  0  0  0  0
    9.2227    5.7552    8.4437 H   0  0  0  0  0  0  0  0  0  0  0  0
   10.8199    5.9395    6.1959 H   0  0  0  0  0  0  0  0  0  0  0  0
   10.7492    7.0558    7.6071 H   0  0  0  0  0  0  0  0  0  0  0  0
   12.9437    6.5381    7.4963 H   0  0  0  0  0  0  0  0  0  0  0  0
   12.7468    4.8433    6.9872 H   0  0  0  0  0  0  0  0  0  0  0  0
  1  3  2  0
  1  4  1  0
  1  5  1  0
  2  4  1  0
  2  6  1  0
  4  9  1  0
  4 15  1  0
  5  6  1  0
  5  8  1  0
  6  7  2  3
  9 10  2  0
  9 14  1  0
 10 11  1  0
 11 12  2  0
 12 13  1  0
 13 14  2  0
 15 16  2  0
 15 20  1  0
 16 17  1  0
 17 18  2  0
 18 19  1  0
 19 20  2  0
  2 21  1  0
  7 22  1  0
  8 23  1  0
  8 24  1  0
  8 25  1  0
 10 26  1  0
 11 27  1  0
 12 28  1  0
 13 29  1  0
 14 30  1  0
 16 31  1  0
 17 32  1  0
 19 33  1  0
 20 34  1  0
 35 36  2  0
 36 37  1  0
 37 38  1  0
 38 39  1  0
 39 40  1  0
 40 35  1  0
 36 41  1  0
 37 42  1  0
 37 43  1  0
 38 44  1  0
 39 45  1  0
 39 46  1  0
 40 47  1  0
 40 48  1  0
 18 35  1  0
M  END
>  <attachment_point>  (423) 
32

>  <score>  (423) 
<NA>

$$$$
4djw
     RDKit          3D

 47 50  0  0  0  0  0  0  0  0999 V2000
   22.4950   11.8750   22.5810 C   0  0  0  0  0  0  0  0  0  0  0  0
   22.5380    9.4930   22.4640 N   0  0  0  0  0  0  0  0  0  0  0  0
   22.3600   13.0630   22.3480 O   0  0  0  0  0  0  0  0  0  0  0  0
   22.3390   10.6680   21.5610 C   0  0  0  0  0  0  0  0  0  0  0  0
   22.7860   11.3350   23.8120 N   0  0  0  0  0  0  0  0  0  0  0  0
   22.7800    9.9140   23.7010 C   0  0  0  0  0  0  0  0  0  0  0  0
   22.9970    9.1110   24.7490 N   0  0  0  0  0  0  0  0  0  0  0  0
   23.0220   12.1410   25.0180 C   0  0  0  0  0  0  0  0  0  0  0  0
   20.9020   10.6270   21.0050 C   0  0  0  0  0  0  0  0  0  0  0  0
   20.2720    9.4140   20.7470 C   0  0  0  0  0  0  0  0  0  0  0  0
   18.9690    9.3760   20.2600 C   0  0  0  0  0  0  0  0  0  0  0  0
   18.2800   10.5440   20.0210 C   0  0  0  0  0  0  0  0  0  0  0  0
   18.8920   11.7530   20.2590 C   0  0  0  0  0  0  0  0  0  0  0  0
   20.1950   11.7970   20.7440 C   0  0  0  0  0  0  0  0  0  0  0  0
   23.4880   10.6920   20.5300 C   0  0  0  0  0  0  0  0  0  0  0  0
   23.2110   10.7890   19.1730 C   0  0  0  0  0  0  0  0  0  0  0  0
   24.2350   10.8650   18.2430 C   0  0  0  0  0  0  0  0  0  0  0  0
   25.5500   10.8410   18.6560 C   0  0  0  0  0  0  0  0  0  0  0  0
   25.8710   10.7460   20.0070 C   0  0  0  0  0  0  0  0  0  0  0  0
   24.8260   10.6610   20.9430 C   0  0  0  0  0  0  0  0  0  0  0  0
    0.0000    0.0000    0.0000 H   0  0  0  0  0  0  0  0  0  0  0  0
    0.0000    0.0000    0.0000 H   0  0  0  0  0  0  0  0  0  0  0  0
    0.0000    0.0000    0.0000 H   0  0  0  0  0  0  0  0  0  0  0  0
    0.0000    0.0000    0.0000 H   0  0  0  0  0  0  0  0  0  0  0  0
    0.0000    0.0000    0.0000 H   0  0  0  0  0  0  0  0  0  0  0  0
    0.0000    0.0000    0.0000 H   0  0  0  0  0  0  0  0  0  0  0  0
    0.0000    0.0000    0.0000 H   0  0  0  0  0  0  0  0  0  0  0  0
    0.0000    0.0000    0.0000 H   0  0  0  0  0  0  0  0  0  0  0  0
    0.0000    0.0000    0.0000 H   0  0  0  0  0  0  0  0  0  0  0  0
    0.0000    0.0000    0.0000 H   0  0  0  0  0  0  0  0  0  0  0  0
    0.0000    0.0000    0.0000 H   0  0  0  0  0  0  0  0  0  0  0  0
    0.0000    0.0000    0.0000 H   0  0  0  0  0  0  0  0  0  0  0  0
    0.0000    0.0000    0.0000 H   0  0  0  0  0  0  0  0  0  0  0  0
    0.0000    0.0000    0.0000 H   0  0  0  0  0  0  0  0  0  0  0  0
   12.3543    5.2420    9.0208 O   0  0  0  0  0  0  0  0  0  0  0  0
   13.0064    5.0765    7.8058 C   0  0  0  0  0  0  0  0  0  0  0  0
   13.0157    6.0850    6.8656 C   0  0  0  0  0  0  0  0  0  0  0  0
   13.6453    5.9573    5.6632 C   0  0  0  0  0  0  0  0  0  0  0  0
   14.3028    4.7699    5.3701 C   0  0  0  0  0  0  0  0  0  0  0  0
   14.9642    4.5754    4.1620 O   0  0  0  0  0  0  0  0  0  0  0  0
   14.2921    3.7625    6.3121 C   0  0  0  0  0  0  0  0  0  0  0  0
   13.6517    3.8890    7.5380 C   0  0  0  0  0  0  0  0  0  0  0  0
   12.5034    6.9997    7.1038 H   0  0  0  0  0  0  0  0  0  0  0  0
   13.6359    6.7703    4.9407 H   0  0  0  0  0  0  0  0  0  0  0  0
   15.9713    4.7648    4.1776 H   0  0  0  0  0  0  0  0  0  0  0  0
   14.8065    2.8344    6.0818 H   0  0  0  0  0  0  0  0  0  0  0  0
   13.6656    3.0832    8.2445 H   0  0  0  0  0  0  0  0  0  0  0  0
  1  3  2  0
  1  4  1  0
  1  5  1  0
  2  4  1  0
  2  6  1  0
  4  9  1  0
  4 15  1  0
  5  6  1  0
  5  8  1  0
  6  7  2  3
  9 10  2  0
  9 14  1  0
 10 11  1  0
 11 12  2  0
 12 13  1  0
 13 14  2  0
 15 16  2  0
 15 20  1  0
 16 17  1  0
 17 18  2  0
 18 19  1  0
 19 20  2  0
  2 21  1  0
  7 22  1  0
  8 23  1  0
  8 24  1  0
  8 25  1  0
 10 26  1  0
 11 27  1  0
 12 28  1  0
 13 29  1  0
 14 30  1  0
 16 31  1  0
 17 32  1  0
 19 33  1  0
 20 34  1  0
 35 36  1  0
 36 37  2  0
 37 38  1  0
 38 39  2  0
 39 40  1  0
 39 41  1  0
 41 42  2  0
 42 36  1  0
 37 43  1  0
 38 44  1  0
 40 45  1  0
 41 46  1  0
 42 47  1  0
 18 35  1  0
M  END
>  <attachment_point>  (424) 
32

>  <score>  (424) 
<NA>

$$$$
4djw
     RDKit          3D

 47 50  0  0  0  0  0  0  0  0999 V2000
   22.4950   11.8750   22.5810 C   0  0  0  0  0  0  0  0  0  0  0  0
   22.5380    9.4930   22.4640 N   0  0  0  0  0  0  0  0  0  0  0  0
   22.3600   13.0630   22.3480 O   0  0  0  0  0  0  0  0  0  0  0  0
   22.3390   10.6680   21.5610 C   0  0  0  0  0  0  0  0  0  0  0  0
   22.7860   11.3350   23.8120 N   0  0  0  0  0  0  0  0  0  0  0  0
   22.7800    9.9140   23.7010 C   0  0  0  0  0  0  0  0  0  0  0  0
   22.9970    9.1110   24.7490 N   0  0  0  0  0  0  0  0  0  0  0  0
   23.0220   12.1410   25.0180 C   0  0  0  0  0  0  0  0  0  0  0  0
   20.9020   10.6270   21.0050 C   0  0  0  0  0  0  0  0  0  0  0  0
   20.2720    9.4140   20.7470 C   0  0  0  0  0  0  0  0  0  0  0  0
   18.9690    9.3760   20.2600 C   0  0  0  0  0  0  0  0  0  0  0  0
   18.2800   10.5440   20.0210 C   0  0  0  0  0  0  0  0  0  0  0  0
   18.8920   11.7530   20.2590 C   0  0  0  0  0  0  0  0  0  0  0  0
   20.1950   11.7970   20.7440 C   0  0  0  0  0  0  0  0  0  0  0  0
   23.4880   10.6920   20.5300 C   0  0  0  0  0  0  0  0  0  0  0  0
   23.2110   10.7890   19.1730 C   0  0  0  0  0  0  0  0  0  0  0  0
   24.2350   10.8650   18.2430 C   0  0  0  0  0  0  0  0  0  0  0  0
   25.5500   10.8410   18.6560 C   0  0  0  0  0  0  0  0  0  0  0  0
   25.8710   10.7460   20.0070 C   0  0  0  0  0  0  0  0  0  0  0  0
   24.8260   10.6610   20.9430 C   0  0  0  0  0  0  0  0  0  0  0  0
    0.0000    0.0000    0.0000 H   0  0  0  0  0  0  0  0  0  0  0  0
    0.0000    0.0000    0.0000 H   0  0  0  0  0  0  0  0  0  0  0  0
    0.0000    0.0000    0.0000 H   0  0  0  0  0  0  0  0  0  0  0  0
    0.0000    0.0000    0.0000 H   0  0  0  0  0  0  0  0  0  0  0  0
    0.0000    0.0000    0.0000 H   0  0  0  0  0  0  0  0  0  0  0  0
    0.0000    0.0000    0.0000 H   0  0  0  0  0  0  0  0  0  0  0  0
    0.0000    0.0000    0.0000 H   0  0  0  0  0  0  0  0  0  0  0  0
    0.0000    0.0000    0.0000 H   0  0  0  0  0  0  0  0  0  0  0  0
    0.0000    0.0000    0.0000 H   0  0  0  0  0  0  0  0  0  0  0  0
    0.0000    0.0000    0.0000 H   0  0  0  0  0  0  0  0  0  0  0  0
    0.0000    0.0000    0.0000 H   0  0  0  0  0  0  0  0  0  0  0  0
    0.0000    0.0000    0.0000 H   0  0  0  0  0  0  0  0  0  0  0  0
    0.0000    0.0000    0.0000 H   0  0  0  0  0  0  0  0  0  0  0  0
    0.0000    0.0000    0.0000 H   0  0  0  0  0  0  0  0  0  0  0  0
   12.4392    5.2780    9.0828 N   0  0  0  0  0  0  0  0  0  0  0  0
   12.6900    4.7157    7.8214 C   0  0  0  0  0  0  0  0  0  0  0  0
   13.9367    4.5667    7.2672 C   0  0  0  0  0  0  0  0  0  0  0  0
   14.0662    3.9902    5.9973 C   0  0  0  0  0  0  0  0  0  0  0  0
   12.9733    3.5635    5.2792 C   0  0  0  0  0  0  0  0  0  0  0  0
   13.1073    3.0025    4.0422 F   0  0  0  0  0  0  0  0  0  0  0  0
   11.7268    3.7125    5.8334 C   0  0  0  0  0  0  0  0  0  0  0  0
   11.6137    4.2809    7.0825 C   0  0  0  0  0  0  0  0  0  0  0  0
   11.5328    5.4121    9.5416 H   0  0  0  0  0  0  0  0  0  0  0  0
   14.7868    4.9015    7.8320 H   0  0  0  0  0  0  0  0  0  0  0  0
   15.0698    3.8810    5.5747 H   0  0  0  0  0  0  0  0  0  0  0  0
   10.8258    3.3805    5.2841 H   0  0  0  0  0  0  0  0  0  0  0  0
   10.5958    4.3885    7.5046 H   0  0  0  0  0  0  0  0  0  0  0  0
  1  3  2  0
  1  4  1  0
  1  5  1  0
  2  4  1  0
  2  6  1  0
  4  9  1  0
  4 15  1  0
  5  6  1  0
  5  8  1  0
  6  7  2  3
  9 10  2  0
  9 14  1  0
 10 11  1  0
 11 12  2  0
 12 13  1  0
 13 14  2  0
 15 16  2  0
 15 20  1  0
 16 17  1  0
 17 18  2  0
 18 19  1  0
 19 20  2  0
  2 21  1  0
  7 22  1  0
  8 23  1  0
  8 24  1  0
  8 25  1  0
 10 26  1  0
 11 27  1  0
 12 28  1  0
 13 29  1  0
 14 30  1  0
 16 31  1  0
 17 32  1  0
 19 33  1  0
 20 34  1  0
 35 36  1  0
 36 37  2  0
 37 38  1  0
 38 39  2  0
 39 40  1  0
 39 41  1  0
 41 42  2  0
 42 36  1  0
 35 43  1  0
 37 44  1  0
 38 45  1  0
 41 46  1  0
 42 47  1  0
 18 35  1  0
M  END
>  <attachment_point>  (425) 
32

>  <score>  (425) 
<NA>

$$$$
4djw
     RDKit          3D

 49 52  0  0  0  0  0  0  0  0999 V2000
   22.4950   11.8750   22.5810 C   0  0  0  0  0  0  0  0  0  0  0  0
   22.5380    9.4930   22.4640 N   0  0  0  0  0  0  0  0  0  0  0  0
   22.3600   13.0630   22.3480 O   0  0  0  0  0  0  0  0  0  0  0  0
   22.3390   10.6680   21.5610 C   0  0  0  0  0  0  0  0  0  0  0  0
   22.7860   11.3350   23.8120 N   0  0  0  0  0  0  0  0  0  0  0  0
   22.7800    9.9140   23.7010 C   0  0  0  0  0  0  0  0  0  0  0  0
   22.9970    9.1110   24.7490 N   0  0  0  0  0  0  0  0  0  0  0  0
   23.0220   12.1410   25.0180 C   0  0  0  0  0  0  0  0  0  0  0  0
   20.9020   10.6270   21.0050 C   0  0  0  0  0  0  0  0  0  0  0  0
   20.2720    9.4140   20.7470 C   0  0  0  0  0  0  0  0  0  0  0  0
   18.9690    9.3760   20.2600 C   0  0  0  0  0  0  0  0  0  0  0  0
   18.2800   10.5440   20.0210 C   0  0  0  0  0  0  0  0  0  0  0  0
   18.8920   11.7530   20.2590 C   0  0  0  0  0  0  0  0  0  0  0  0
   20.1950   11.7970   20.7440 C   0  0  0  0  0  0  0  0  0  0  0  0
   23.4880   10.6920   20.5300 C   0  0  0  0  0  0  0  0  0  0  0  0
   23.2110   10.7890   19.1730 C   0  0  0  0  0  0  0  0  0  0  0  0
   24.2350   10.8650   18.2430 C   0  0  0  0  0  0  0  0  0  0  0  0
   25.5500   10.8410   18.6560 C   0  0  0  0  0  0  0  0  0  0  0  0
   25.8710   10.7460   20.0070 C   0  0  0  0  0  0  0  0  0  0  0  0
   24.8260   10.6610   20.9430 C   0  0  0  0  0  0  0  0  0  0  0  0
    0.0000    0.0000    0.0000 H   0  0  0  0  0  0  0  0  0  0  0  0
    0.0000    0.0000    0.0000 H   0  0  0  0  0  0  0  0  0  0  0  0
    0.0000    0.0000    0.0000 H   0  0  0  0  0  0  0  0  0  0  0  0
    0.0000    0.0000    0.0000 H   0  0  0  0  0  0  0  0  0  0  0  0
    0.0000    0.0000    0.0000 H   0  0  0  0  0  0  0  0  0  0  0  0
    0.0000    0.0000    0.0000 H   0  0  0  0  0  0  0  0  0  0  0  0
    0.0000    0.0000    0.0000 H   0  0  0  0  0  0  0  0  0  0  0  0
    0.0000    0.0000    0.0000 H   0  0  0  0  0  0  0  0  0  0  0  0
    0.0000    0.0000    0.0000 H   0  0  0  0  0  0  0  0  0  0  0  0
    0.0000    0.0000    0.0000 H   0  0  0  0  0  0  0  0  0  0  0  0
    0.0000    0.0000    0.0000 H   0  0  0  0  0  0  0  0  0  0  0  0
    0.0000    0.0000    0.0000 H   0  0  0  0  0  0  0  0  0  0  0  0
    0.0000    0.0000    0.0000 H   0  0  0  0  0  0  0  0  0  0  0  0
    0.0000    0.0000    0.0000 H   0  0  0  0  0  0  0  0  0  0  0  0
   12.3980    5.2605    9.0527 C   0  0  0  0  0  0  0  0  0  0  0  0
   11.3464    6.0638    8.8843 C   0  0  0  0  0  0  0  0  0  0  0  0
   10.2825    5.5756    8.0899 C   0  0  0  0  0  0  0  0  0  0  0  0
   10.3332    4.3382    7.5229 C   0  0  0  0  0  0  0  0  0  0  0  0
    9.2539    3.9185    6.7533 O   0  0  0  0  0  0  0  0  0  0  0  0
    8.1153    4.7350    6.5451 C   0  0  0  0  0  0  0  0  0  0  0  0
   11.4325    3.5341    7.7162 C   0  0  0  0  0  0  0  0  0  0  0  0
   11.5112    2.3071    7.1690 F   0  0  0  0  0  0  0  0  0  0  0  0
   12.4935    4.0208    8.5084 C   0  0  0  0  0  0  0  0  0  0  0  0
   11.2931    7.0505    9.3296 H   0  0  0  0  0  0  0  0  0  0  0  0
    9.4371    6.2129    7.9505 H   0  0  0  0  0  0  0  0  0  0  0  0
    7.4480    4.3139    5.7737 H   0  0  0  0  0  0  0  0  0  0  0  0
    7.5857    4.8507    7.5112 H   0  0  0  0  0  0  0  0  0  0  0  0
    8.4943    5.7279    6.2094 H   0  0  0  0  0  0  0  0  0  0  0  0
   13.3753    3.4317    8.6902 H   0  0  0  0  0  0  0  0  0  0  0  0
  1  3  2  0
  1  4  1  0
  1  5  1  0
  2  4  1  0
  2  6  1  0
  4  9  1  0
  4 15  1  0
  5  6  1  0
  5  8  1  0
  6  7  2  3
  9 10  2  0
  9 14  1  0
 10 11  1  0
 11 12  2  0
 12 13  1  0
 13 14  2  0
 15 16  2  0
 15 20  1  0
 16 17  1  0
 17 18  2  0
 18 19  1  0
 19 20  2  0
  2 21  1  0
  7 22  1  0
  8 23  1  0
  8 24  1  0
  8 25  1  0
 10 26  1  0
 11 27  1  0
 12 28  1  0
 13 29  1  0
 14 30  1  0
 16 31  1  0
 17 32  1  0
 19 33  1  0
 20 34  1  0
 35 36  2  0
 36 37  1  0
 37 38  2  0
 38 39  1  0
 39 40  1  0
 38 41  1  0
 41 42  1  0
 41 43  2  0
 43 35  1  0
 36 44  1  0
 37 45  1  0
 40 46  1  0
 40 47  1  0
 40 48  1  0
 43 49  1  0
 18 35  1  0
M  END
>  <attachment_point>  (426) 
32

>  <score>  (426) 
<NA>

$$$$
4djw
     RDKit          3D

 47 49  0  0  0  0  0  0  0  0999 V2000
   22.4950   11.8750   22.5810 C   0  0  0  0  0  0  0  0  0  0  0  0
   22.5380    9.4930   22.4640 N   0  0  0  0  0  0  0  0  0  0  0  0
   22.3600   13.0630   22.3480 O   0  0  0  0  0  0  0  0  0  0  0  0
   22.3390   10.6680   21.5610 C   0  0  0  0  0  0  0  0  0  0  0  0
   22.7860   11.3350   23.8120 N   0  0  0  0  0  0  0  0  0  0  0  0
   22.7800    9.9140   23.7010 C   0  0  0  0  0  0  0  0  0  0  0  0
   22.9970    9.1110   24.7490 N   0  0  0  0  0  0  0  0  0  0  0  0
   23.0220   12.1410   25.0180 C   0  0  0  0  0  0  0  0  0  0  0  0
   20.9020   10.6270   21.0050 C   0  0  0  0  0  0  0  0  0  0  0  0
   20.2720    9.4140   20.7470 C   0  0  0  0  0  0  0  0  0  0  0  0
   18.9690    9.3760   20.2600 C   0  0  0  0  0  0  0  0  0  0  0  0
   18.2800   10.5440   20.0210 C   0  0  0  0  0  0  0  0  0  0  0  0
   18.8920   11.7530   20.2590 C   0  0  0  0  0  0  0  0  0  0  0  0
   20.1950   11.7970   20.7440 C   0  0  0  0  0  0  0  0  0  0  0  0
   23.4880   10.6920   20.5300 C   0  0  0  0  0  0  0  0  0  0  0  0
   23.2110   10.7890   19.1730 C   0  0  0  0  0  0  0  0  0  0  0  0
   24.2350   10.8650   18.2430 C   0  0  0  0  0  0  0  0  0  0  0  0
   25.5500   10.8410   18.6560 C   0  0  0  0  0  0  0  0  0  0  0  0
   25.8710   10.7460   20.0070 C   0  0  0  0  0  0  0  0  0  0  0  0
   24.8260   10.6610   20.9430 C   0  0  0  0  0  0  0  0  0  0  0  0
    0.0000    0.0000    0.0000 H   0  0  0  0  0  0  0  0  0  0  0  0
    0.0000    0.0000    0.0000 H   0  0  0  0  0  0  0  0  0  0  0  0
    0.0000    0.0000    0.0000 H   0  0  0  0  0  0  0  0  0  0  0  0
    0.0000    0.0000    0.0000 H   0  0  0  0  0  0  0  0  0  0  0  0
    0.0000    0.0000    0.0000 H   0  0  0  0  0  0  0  0  0  0  0  0
    0.0000    0.0000    0.0000 H   0  0  0  0  0  0  0  0  0  0  0  0
    0.0000    0.0000    0.0000 H   0  0  0  0  0  0  0  0  0  0  0  0
    0.0000    0.0000    0.0000 H   0  0  0  0  0  0  0  0  0  0  0  0
    0.0000    0.0000    0.0000 H   0  0  0  0  0  0  0  0  0  0  0  0
    0.0000    0.0000    0.0000 H   0  0  0  0  0  0  0  0  0  0  0  0
    0.0000    0.0000    0.0000 H   0  0  0  0  0  0  0  0  0  0  0  0
    0.0000    0.0000    0.0000 H   0  0  0  0  0  0  0  0  0  0  0  0
    0.0000    0.0000    0.0000 H   0  0  0  0  0  0  0  0  0  0  0  0
    0.0000    0.0000    0.0000 H   0  0  0  0  0  0  0  0  0  0  0  0
   12.3949    5.2592    9.0505 C   0  0  0  0  0  0  0  0  0  0  0  0
   11.1408    5.4294    9.7279 C   0  0  0  0  0  0  0  0  0  0  0  0
   12.7494    4.8126    7.9547 N   0  0  0  0  0  0  0  0  0  0  0  0
   14.0138    4.7081    7.4235 N   0  0  0  0  0  0  0  0  0  0  0  0
   14.1612    4.6494    6.0072 C   0  0  0  0  0  0  0  0  0  0  0  0
   15.4412    4.5410    5.3973 N   0  0  0  0  0  0  0  0  0  0  0  0
   12.8447    4.7054    5.0223 S   0  0  0  0  0  0  0  0  0  0  0  0
   11.0303    4.6120   10.4981 H   0  0  0  0  0  0  0  0  0  0  0  0
   10.3192    5.3643    8.9985 H   0  0  0  0  0  0  0  0  0  0  0  0
   11.1142    6.4256   10.2393 H   0  0  0  0  0  0  0  0  0  0  0  0
   14.8846    4.6686    8.0061 H   0  0  0  0  0  0  0  0  0  0  0  0
   16.0188    5.4023    5.2939 H   0  0  0  0  0  0  0  0  0  0  0  0
   15.8437    3.6482    5.0434 H   0  0  0  0  0  0  0  0  0  0  0  0
  1  3  2  0
  1  4  1  0
  1  5  1  0
  2  4  1  0
  2  6  1  0
  4  9  1  0
  4 15  1  0
  5  6  1  0
  5  8  1  0
  6  7  2  3
  9 10  2  0
  9 14  1  0
 10 11  1  0
 11 12  2  0
 12 13  1  0
 13 14  2  0
 15 16  2  0
 15 20  1  0
 16 17  1  0
 17 18  2  0
 18 19  1  0
 19 20  2  0
  2 21  1  0
  7 22  1  0
  8 23  1  0
  8 24  1  0
  8 25  1  0
 10 26  1  0
 11 27  1  0
 12 28  1  0
 13 29  1  0
 14 30  1  0
 16 31  1  0
 17 32  1  0
 19 33  1  0
 20 34  1  0
 35 36  1  0
 35 37  2  3
 37 38  1  0
 38 39  1  0
 39 40  1  0
 39 41  2  0
 36 42  1  0
 36 43  1  0
 36 44  1  0
 38 45  1  0
 40 46  1  0
 40 47  1  0
 18 35  1  0
M  END
>  <attachment_point>  (427) 
32

>  <score>  (427) 
<NA>

$$$$
4djw
     RDKit          3D

 44 47  0  0  0  0  0  0  0  0999 V2000
   22.4950   11.8750   22.5810 C   0  0  0  0  0  0  0  0  0  0  0  0
   22.5380    9.4930   22.4640 N   0  0  0  0  0  0  0  0  0  0  0  0
   22.3600   13.0630   22.3480 O   0  0  0  0  0  0  0  0  0  0  0  0
   22.3390   10.6680   21.5610 C   0  0  0  0  0  0  0  0  0  0  0  0
   22.7860   11.3350   23.8120 N   0  0  0  0  0  0  0  0  0  0  0  0
   22.7800    9.9140   23.7010 C   0  0  0  0  0  0  0  0  0  0  0  0
   22.9970    9.1110   24.7490 N   0  0  0  0  0  0  0  0  0  0  0  0
   23.0220   12.1410   25.0180 C   0  0  0  0  0  0  0  0  0  0  0  0
   20.9020   10.6270   21.0050 C   0  0  0  0  0  0  0  0  0  0  0  0
   20.2720    9.4140   20.7470 C   0  0  0  0  0  0  0  0  0  0  0  0
   18.9690    9.3760   20.2600 C   0  0  0  0  0  0  0  0  0  0  0  0
   18.2800   10.5440   20.0210 C   0  0  0  0  0  0  0  0  0  0  0  0
   18.8920   11.7530   20.2590 C   0  0  0  0  0  0  0  0  0  0  0  0
   20.1950   11.7970   20.7440 C   0  0  0  0  0  0  0  0  0  0  0  0
   23.4880   10.6920   20.5300 C   0  0  0  0  0  0  0  0  0  0  0  0
   23.2110   10.7890   19.1730 C   0  0  0  0  0  0  0  0  0  0  0  0
   24.2350   10.8650   18.2430 C   0  0  0  0  0  0  0  0  0  0  0  0
   25.5500   10.8410   18.6560 C   0  0  0  0  0  0  0  0  0  0  0  0
   25.8710   10.7460   20.0070 C   0  0  0  0  0  0  0  0  0  0  0  0
   24.8260   10.6610   20.9430 C   0  0  0  0  0  0  0  0  0  0  0  0
    0.0000    0.0000    0.0000 H   0  0  0  0  0  0  0  0  0  0  0  0
    0.0000    0.0000    0.0000 H   0  0  0  0  0  0  0  0  0  0  0  0
    0.0000    0.0000    0.0000 H   0  0  0  0  0  0  0  0  0  0  0  0
    0.0000    0.0000    0.0000 H   0  0  0  0  0  0  0  0  0  0  0  0
    0.0000    0.0000    0.0000 H   0  0  0  0  0  0  0  0  0  0  0  0
    0.0000    0.0000    0.0000 H   0  0  0  0  0  0  0  0  0  0  0  0
    0.0000    0.0000    0.0000 H   0  0  0  0  0  0  0  0  0  0  0  0
    0.0000    0.0000    0.0000 H   0  0  0  0  0  0  0  0  0  0  0  0
    0.0000    0.0000    0.0000 H   0  0  0  0  0  0  0  0  0  0  0  0
    0.0000    0.0000    0.0000 H   0  0  0  0  0  0  0  0  0  0  0  0
    0.0000    0.0000    0.0000 H   0  0  0  0  0  0  0  0  0  0  0  0
    0.0000    0.0000    0.0000 H   0  0  0  0  0  0  0  0  0  0  0  0
    0.0000    0.0000    0.0000 H   0  0  0  0  0  0  0  0  0  0  0  0
    0.0000    0.0000    0.0000 H   0  0  0  0  0  0  0  0  0  0  0  0
   12.4596    5.2867    9.0977 C   0  0  0  0  0  0  0  0  0  0  0  0
   12.6767    4.6934    8.0098 O   0  0  0  0  0  0  0  0  0  0  0  0
   11.0580    5.4753    9.4990 C   0  0  0  0  0  0  0  0  0  0  0  0
   10.6745    6.1071   10.6638 C   0  0  0  0  0  0  0  0  0  0  0  0
    9.2948    6.0836   10.6783 C   0  0  0  0  0  0  0  0  0  0  0  0
    8.8957    5.4389    9.5223 C   0  0  0  0  0  0  0  0  0  0  0  0
    9.9774    5.0998    8.8609 O   0  0  0  0  0  0  0  0  0  0  0  0
   11.2691    6.5472   11.4395 H   0  0  0  0  0  0  0  0  0  0  0  0
    8.6199    6.4857   11.4377 H   0  0  0  0  0  0  0  0  0  0  0  0
    7.8574    5.2471    9.2168 H   0  0  0  0  0  0  0  0  0  0  0  0
  1  3  2  0
  1  4  1  0
  1  5  1  0
  2  4  1  0
  2  6  1  0
  4  9  1  0
  4 15  1  0
  5  6  1  0
  5  8  1  0
  6  7  2  3
  9 10  2  0
  9 14  1  0
 10 11  1  0
 11 12  2  0
 12 13  1  0
 13 14  2  0
 15 16  2  0
 15 20  1  0
 16 17  1  0
 17 18  2  0
 18 19  1  0
 19 20  2  0
  2 21  1  0
  7 22  1  0
  8 23  1  0
  8 24  1  0
  8 25  1  0
 10 26  1  0
 11 27  1  0
 12 28  1  0
 13 29  1  0
 14 30  1  0
 16 31  1  0
 17 32  1  0
 19 33  1  0
 20 34  1  0
 35 36  2  0
 35 37  1  0
 37 38  2  0
 38 39  1  0
 39 40  2  0
 40 41  1  0
 41 37  1  0
 38 42  1  0
 39 43  1  0
 40 44  1  0
 18 35  1  0
M  END
>  <attachment_point>  (428) 
32

>  <score>  (428) 
<NA>

$$$$
4djw
     RDKit          3D

 49 52  0  0  0  0  0  0  0  0999 V2000
   22.4950   11.8750   22.5810 C   0  0  0  0  0  0  0  0  0  0  0  0
   22.5380    9.4930   22.4640 N   0  0  0  0  0  0  0  0  0  0  0  0
   22.3600   13.0630   22.3480 O   0  0  0  0  0  0  0  0  0  0  0  0
   22.3390   10.6680   21.5610 C   0  0  0  0  0  0  0  0  0  0  0  0
   22.7860   11.3350   23.8120 N   0  0  0  0  0  0  0  0  0  0  0  0
   22.7800    9.9140   23.7010 C   0  0  0  0  0  0  0  0  0  0  0  0
   22.9970    9.1110   24.7490 N   0  0  0  0  0  0  0  0  0  0  0  0
   23.0220   12.1410   25.0180 C   0  0  0  0  0  0  0  0  0  0  0  0
   20.9020   10.6270   21.0050 C   0  0  0  0  0  0  0  0  0  0  0  0
   20.2720    9.4140   20.7470 C   0  0  0  0  0  0  0  0  0  0  0  0
   18.9690    9.3760   20.2600 C   0  0  0  0  0  0  0  0  0  0  0  0
   18.2800   10.5440   20.0210 C   0  0  0  0  0  0  0  0  0  0  0  0
   18.8920   11.7530   20.2590 C   0  0  0  0  0  0  0  0  0  0  0  0
   20.1950   11.7970   20.7440 C   0  0  0  0  0  0  0  0  0  0  0  0
   23.4880   10.6920   20.5300 C   0  0  0  0  0  0  0  0  0  0  0  0
   23.2110   10.7890   19.1730 C   0  0  0  0  0  0  0  0  0  0  0  0
   24.2350   10.8650   18.2430 C   0  0  0  0  0  0  0  0  0  0  0  0
   25.5500   10.8410   18.6560 C   0  0  0  0  0  0  0  0  0  0  0  0
   25.8710   10.7460   20.0070 C   0  0  0  0  0  0  0  0  0  0  0  0
   24.8260   10.6610   20.9430 C   0  0  0  0  0  0  0  0  0  0  0  0
    0.0000    0.0000    0.0000 H   0  0  0  0  0  0  0  0  0  0  0  0
    0.0000    0.0000    0.0000 H   0  0  0  0  0  0  0  0  0  0  0  0
    0.0000    0.0000    0.0000 H   0  0  0  0  0  0  0  0  0  0  0  0
    0.0000    0.0000    0.0000 H   0  0  0  0  0  0  0  0  0  0  0  0
    0.0000    0.0000    0.0000 H   0  0  0  0  0  0  0  0  0  0  0  0
    0.0000    0.0000    0.0000 H   0  0  0  0  0  0  0  0  0  0  0  0
    0.0000    0.0000    0.0000 H   0  0  0  0  0  0  0  0  0  0  0  0
    0.0000    0.0000    0.0000 H   0  0  0  0  0  0  0  0  0  0  0  0
    0.0000    0.0000    0.0000 H   0  0  0  0  0  0  0  0  0  0  0  0
    0.0000    0.0000    0.0000 H   0  0  0  0  0  0  0  0  0  0  0  0
    0.0000    0.0000    0.0000 H   0  0  0  0  0  0  0  0  0  0  0  0
    0.0000    0.0000    0.0000 H   0  0  0  0  0  0  0  0  0  0  0  0
    0.0000    0.0000    0.0000 H   0  0  0  0  0  0  0  0  0  0  0  0
    0.0000    0.0000    0.0000 H   0  0  0  0  0  0  0  0  0  0  0  0
   12.4592    5.2865    9.0974 C   0  0  2  0  0  0  0  0  0  0  0  0
   12.3496    3.9137    9.2988 O   0  0  0  0  0  0  0  0  0  0  0  0
   12.6681    5.6312    7.6726 C   0  0  0  0  0  0  0  0  0  0  0  0
   13.6363    6.5691    7.3503 C   0  0  0  0  0  0  0  0  0  0  0  0
   13.8572    6.9130    6.0393 C   0  0  0  0  0  0  0  0  0  0  0  0
   13.1232    6.3343    5.0220 C   0  0  0  0  0  0  0  0  0  0  0  0
   12.1580    5.4011    5.3231 C   0  0  0  0  0  0  0  0  0  0  0  0
   11.9402    5.0586    6.6497 C   0  0  0  0  0  0  0  0  0  0  0  0
   11.5362    5.7494    9.5055 H   0  0  0  0  0  0  0  0  0  0  0  0
   11.5929    3.6010    8.7454 H   0  0  0  0  0  0  0  0  0  0  0  0
   14.2050    7.0148    8.1666 H   0  0  0  0  0  0  0  0  0  0  0  0
   14.6292    7.6537    5.8516 H   0  0  0  0  0  0  0  0  0  0  0  0
   13.3244    6.6280    4.0122 H   0  0  0  0  0  0  0  0  0  0  0  0
   11.5554    4.9200    4.5441 H   0  0  0  0  0  0  0  0  0  0  0  0
   11.1678    4.3129    6.8815 H   0  0  0  0  0  0  0  0  0  0  0  0
  1  3  2  0
  1  4  1  0
  1  5  1  0
  2  4  1  0
  2  6  1  0
  4  9  1  0
  4 15  1  0
  5  6  1  0
  5  8  1  0
  6  7  2  3
  9 10  2  0
  9 14  1  0
 10 11  1  0
 11 12  2  0
 12 13  1  0
 13 14  2  0
 15 16  2  0
 15 20  1  0
 16 17  1  0
 17 18  2  0
 18 19  1  0
 19 20  2  0
  2 21  1  0
  7 22  1  0
  8 23  1  0
  8 24  1  0
  8 25  1  0
 10 26  1  0
 11 27  1  0
 12 28  1  0
 13 29  1  0
 14 30  1  0
 16 31  1  0
 17 32  1  0
 19 33  1  0
 20 34  1  0
 35 36  1  0
 35 37  1  0
 37 38  2  0
 38 39  1  0
 39 40  2  0
 40 41  1  0
 41 42  2  0
 42 37  1  0
 35 43  1  6
 36 44  1  0
 38 45  1  0
 39 46  1  0
 40 47  1  0
 41 48  1  0
 42 49  1  0
 18 35  1  0
M  END
>  <attachment_point>  (429) 
32

>  <score>  (429) 
<NA>

$$$$
4djw
     RDKit          3D

 49 51  0  0  0  0  0  0  0  0999 V2000
   22.4950   11.8750   22.5810 C   0  0  0  0  0  0  0  0  0  0  0  0
   22.5380    9.4930   22.4640 N   0  0  0  0  0  0  0  0  0  0  0  0
   22.3600   13.0630   22.3480 O   0  0  0  0  0  0  0  0  0  0  0  0
   22.3390   10.6680   21.5610 C   0  0  0  0  0  0  0  0  0  0  0  0
   22.7860   11.3350   23.8120 N   0  0  0  0  0  0  0  0  0  0  0  0
   22.7800    9.9140   23.7010 C   0  0  0  0  0  0  0  0  0  0  0  0
   22.9970    9.1110   24.7490 N   0  0  0  0  0  0  0  0  0  0  0  0
   23.0220   12.1410   25.0180 C   0  0  0  0  0  0  0  0  0  0  0  0
   20.9020   10.6270   21.0050 C   0  0  0  0  0  0  0  0  0  0  0  0
   20.2720    9.4140   20.7470 C   0  0  0  0  0  0  0  0  0  0  0  0
   18.9690    9.3760   20.2600 C   0  0  0  0  0  0  0  0  0  0  0  0
   18.2800   10.5440   20.0210 C   0  0  0  0  0  0  0  0  0  0  0  0
   18.8920   11.7530   20.2590 C   0  0  0  0  0  0  0  0  0  0  0  0
   20.1950   11.7970   20.7440 C   0  0  0  0  0  0  0  0  0  0  0  0
   23.4880   10.6920   20.5300 C   0  0  0  0  0  0  0  0  0  0  0  0
   23.2110   10.7890   19.1730 C   0  0  0  0  0  0  0  0  0  0  0  0
   24.2350   10.8650   18.2430 C   0  0  0  0  0  0  0  0  0  0  0  0
   25.5500   10.8410   18.6560 C   0  0  0  0  0  0  0  0  0  0  0  0
   25.8710   10.7460   20.0070 C   0  0  0  0  0  0  0  0  0  0  0  0
   24.8260   10.6610   20.9430 C   0  0  0  0  0  0  0  0  0  0  0  0
    0.0000    0.0000    0.0000 H   0  0  0  0  0  0  0  0  0  0  0  0
    0.0000    0.0000    0.0000 H   0  0  0  0  0  0  0  0  0  0  0  0
    0.0000    0.0000    0.0000 H   0  0  0  0  0  0  0  0  0  0  0  0
    0.0000    0.0000    0.0000 H   0  0  0  0  0  0  0  0  0  0  0  0
    0.0000    0.0000    0.0000 H   0  0  0  0  0  0  0  0  0  0  0  0
    0.0000    0.0000    0.0000 H   0  0  0  0  0  0  0  0  0  0  0  0
    0.0000    0.0000    0.0000 H   0  0  0  0  0  0  0  0  0  0  0  0
    0.0000    0.0000    0.0000 H   0  0  0  0  0  0  0  0  0  0  0  0
    0.0000    0.0000    0.0000 H   0  0  0  0  0  0  0  0  0  0  0  0
    0.0000    0.0000    0.0000 H   0  0  0  0  0  0  0  0  0  0  0  0
    0.0000    0.0000    0.0000 H   0  0  0  0  0  0  0  0  0  0  0  0
    0.0000    0.0000    0.0000 H   0  0  0  0  0  0  0  0  0  0  0  0
    0.0000    0.0000    0.0000 H   0  0  0  0  0  0  0  0  0  0  0  0
    0.0000    0.0000    0.0000 H   0  0  0  0  0  0  0  0  0  0  0  0
   12.4995    5.3036    9.1269 N   0  0  0  0  0  0  0  0  0  0  0  0
   12.2134    6.0374    7.9124 C   0  0  0  0  0  0  0  0  0  0  0  0
   11.8755    7.4819    8.1795 C   0  0  0  0  0  0  0  0  0  0  0  0
   12.9958    8.2187    8.8652 C   0  0  0  0  0  0  0  0  0  0  0  0
   12.5271    9.6532    9.0738 C   0  0  0  0  0  0  0  0  0  0  0  0
   12.6420    4.2994    8.8277 H   0  0  0  0  0  0  0  0  0  0  0  0
   13.1098    5.9528    7.2639 H   0  0  0  0  0  0  0  0  0  0  0  0
   11.3221    5.5761    7.4425 H   0  0  0  0  0  0  0  0  0  0  0  0
   11.7198    7.9629    7.1905 H   0  0  0  0  0  0  0  0  0  0  0  0
   10.9304    7.5430    8.7415 H   0  0  0  0  0  0  0  0  0  0  0  0
   13.8678    8.2677    8.1889 H   0  0  0  0  0  0  0  0  0  0  0  0
   13.2443    7.7886    9.8504 H   0  0  0  0  0  0  0  0  0  0  0  0
   12.2970   10.1310    8.0969 H   0  0  0  0  0  0  0  0  0  0  0  0
   13.3509   10.2672    9.5170 H   0  0  0  0  0  0  0  0  0  0  0  0
   11.6335    9.6471    9.7526 H   0  0  0  0  0  0  0  0  0  0  0  0
  1  3  2  0
  1  4  1  0
  1  5  1  0
  2  4  1  0
  2  6  1  0
  4  9  1  0
  4 15  1  0
  5  6  1  0
  5  8  1  0
  6  7  2  3
  9 10  2  0
  9 14  1  0
 10 11  1  0
 11 12  2  0
 12 13  1  0
 13 14  2  0
 15 16  2  0
 15 20  1  0
 16 17  1  0
 17 18  2  0
 18 19  1  0
 19 20  2  0
  2 21  1  0
  7 22  1  0
  8 23  1  0
  8 24  1  0
  8 25  1  0
 10 26  1  0
 11 27  1  0
 12 28  1  0
 13 29  1  0
 14 30  1  0
 16 31  1  0
 17 32  1  0
 19 33  1  0
 20 34  1  0
 35 36  1  0
 36 37  1  0
 37 38  1  0
 38 39  1  0
 35 40  1  0
 36 41  1  0
 36 42  1  0
 37 43  1  0
 37 44  1  0
 38 45  1  0
 38 46  1  0
 39 47  1  0
 39 48  1  0
 39 49  1  0
 18 35  1  0
M  END
>  <attachment_point>  (430) 
32

>  <score>  (430) 
<NA>

$$$$
4djw
     RDKit          3D

 38 40  0  0  0  0  0  0  0  0999 V2000
   22.4950   11.8750   22.5810 C   0  0  0  0  0  0  0  0  0  0  0  0
   22.5380    9.4930   22.4640 N   0  0  0  0  0  0  0  0  0  0  0  0
   22.3600   13.0630   22.3480 O   0  0  0  0  0  0  0  0  0  0  0  0
   22.3390   10.6680   21.5610 C   0  0  0  0  0  0  0  0  0  0  0  0
   22.7860   11.3350   23.8120 N   0  0  0  0  0  0  0  0  0  0  0  0
   22.7800    9.9140   23.7010 C   0  0  0  0  0  0  0  0  0  0  0  0
   22.9970    9.1110   24.7490 N   0  0  0  0  0  0  0  0  0  0  0  0
   23.0220   12.1410   25.0180 C   0  0  0  0  0  0  0  0  0  0  0  0
   20.9020   10.6270   21.0050 C   0  0  0  0  0  0  0  0  0  0  0  0
   20.2720    9.4140   20.7470 C   0  0  0  0  0  0  0  0  0  0  0  0
   18.9690    9.3760   20.2600 C   0  0  0  0  0  0  0  0  0  0  0  0
   18.2800   10.5440   20.0210 C   0  0  0  0  0  0  0  0  0  0  0  0
   18.8920   11.7530   20.2590 C   0  0  0  0  0  0  0  0  0  0  0  0
   20.1950   11.7970   20.7440 C   0  0  0  0  0  0  0  0  0  0  0  0
   23.4880   10.6920   20.5300 C   0  0  0  0  0  0  0  0  0  0  0  0
   23.2110   10.7890   19.1730 C   0  0  0  0  0  0  0  0  0  0  0  0
   24.2350   10.8650   18.2430 C   0  0  0  0  0  0  0  0  0  0  0  0
   25.5500   10.8410   18.6560 C   0  0  0  0  0  0  0  0  0  0  0  0
   25.8710   10.7460   20.0070 C   0  0  0  0  0  0  0  0  0  0  0  0
   24.8260   10.6610   20.9430 C   0  0  0  0  0  0  0  0  0  0  0  0
    0.0000    0.0000    0.0000 H   0  0  0  0  0  0  0  0  0  0  0  0
    0.0000    0.0000    0.0000 H   0  0  0  0  0  0  0  0  0  0  0  0
    0.0000    0.0000    0.0000 H   0  0  0  0  0  0  0  0  0  0  0  0
    0.0000    0.0000    0.0000 H   0  0  0  0  0  0  0  0  0  0  0  0
    0.0000    0.0000    0.0000 H   0  0  0  0  0  0  0  0  0  0  0  0
    0.0000    0.0000    0.0000 H   0  0  0  0  0  0  0  0  0  0  0  0
    0.0000    0.0000    0.0000 H   0  0  0  0  0  0  0  0  0  0  0  0
    0.0000    0.0000    0.0000 H   0  0  0  0  0  0  0  0  0  0  0  0
    0.0000    0.0000    0.0000 H   0  0  0  0  0  0  0  0  0  0  0  0
    0.0000    0.0000    0.0000 H   0  0  0  0  0  0  0  0  0  0  0  0
    0.0000    0.0000    0.0000 H   0  0  0  0  0  0  0  0  0  0  0  0
    0.0000    0.0000    0.0000 H   0  0  0  0  0  0  0  0  0  0  0  0
    0.0000    0.0000    0.0000 H   0  0  0  0  0  0  0  0  0  0  0  0
    0.0000    0.0000    0.0000 H   0  0  0  0  0  0  0  0  0  0  0  0
   12.5176    5.3113    9.1401 N   0  0  0  0  0  0  0  0  0  0  0  0
   11.7174    4.4062    9.4641 N   0  0  0  0  0  4  0  0  0  0  0  0
   11.0738    3.3706    9.2528 N   0  0  0  0  0  0  0  0  0  0  0  0
   11.4171    2.4634    9.5901 H   0  0  0  0  0  0  0  0  0  0  0  0
  1  3  2  0
  1  4  1  0
  1  5  1  0
  2  4  1  0
  2  6  1  0
  4  9  1  0
  4 15  1  0
  5  6  1  0
  5  8  1  0
  6  7  2  3
  9 10  2  0
  9 14  1  0
 10 11  1  0
 11 12  2  0
 12 13  1  0
 13 14  2  0
 15 16  2  0
 15 20  1  0
 16 17  1  0
 17 18  2  0
 18 19  1  0
 19 20  2  0
  2 21  1  0
  7 22  1  0
  8 23  1  0
  8 24  1  0
  8 25  1  0
 10 26  1  0
 11 27  1  0
 12 28  1  0
 13 29  1  0
 14 30  1  0
 16 31  1  0
 17 32  1  0
 19 33  1  0
 20 34  1  0
 35 36  2  0
 36 37  2  0
 37 38  1  0
 18 35  1  0
M  CHG  1  36   1
M  END
>  <attachment_point>  (431) 
32

>  <score>  (431) 
<NA>

$$$$
4djw
     RDKit          3D

 48 51  0  0  0  0  0  0  0  0999 V2000
   22.4950   11.8750   22.5810 C   0  0  0  0  0  0  0  0  0  0  0  0
   22.5380    9.4930   22.4640 N   0  0  0  0  0  0  0  0  0  0  0  0
   22.3600   13.0630   22.3480 O   0  0  0  0  0  0  0  0  0  0  0  0
   22.3390   10.6680   21.5610 C   0  0  0  0  0  0  0  0  0  0  0  0
   22.7860   11.3350   23.8120 N   0  0  0  0  0  0  0  0  0  0  0  0
   22.7800    9.9140   23.7010 C   0  0  0  0  0  0  0  0  0  0  0  0
   22.9970    9.1110   24.7490 N   0  0  0  0  0  0  0  0  0  0  0  0
   23.0220   12.1410   25.0180 C   0  0  0  0  0  0  0  0  0  0  0  0
   20.9020   10.6270   21.0050 C   0  0  0  0  0  0  0  0  0  0  0  0
   20.2720    9.4140   20.7470 C   0  0  0  0  0  0  0  0  0  0  0  0
   18.9690    9.3760   20.2600 C   0  0  0  0  0  0  0  0  0  0  0  0
   18.2800   10.5440   20.0210 C   0  0  0  0  0  0  0  0  0  0  0  0
   18.8920   11.7530   20.2590 C   0  0  0  0  0  0  0  0  0  0  0  0
   20.1950   11.7970   20.7440 C   0  0  0  0  0  0  0  0  0  0  0  0
   23.4880   10.6920   20.5300 C   0  0  0  0  0  0  0  0  0  0  0  0
   23.2110   10.7890   19.1730 C   0  0  0  0  0  0  0  0  0  0  0  0
   24.2350   10.8650   18.2430 C   0  0  0  0  0  0  0  0  0  0  0  0
   25.5500   10.8410   18.6560 C   0  0  0  0  0  0  0  0  0  0  0  0
   25.8710   10.7460   20.0070 C   0  0  0  0  0  0  0  0  0  0  0  0
   24.8260   10.6610   20.9430 C   0  0  0  0  0  0  0  0  0  0  0  0
    0.0000    0.0000    0.0000 H   0  0  0  0  0  0  0  0  0  0  0  0
    0.0000    0.0000    0.0000 H   0  0  0  0  0  0  0  0  0  0  0  0
    0.0000    0.0000    0.0000 H   0  0  0  0  0  0  0  0  0  0  0  0
    0.0000    0.0000    0.0000 H   0  0  0  0  0  0  0  0  0  0  0  0
    0.0000    0.0000    0.0000 H   0  0  0  0  0  0  0  0  0  0  0  0
    0.0000    0.0000    0.0000 H   0  0  0  0  0  0  0  0  0  0  0  0
    0.0000    0.0000    0.0000 H   0  0  0  0  0  0  0  0  0  0  0  0
    0.0000    0.0000    0.0000 H   0  0  0  0  0  0  0  0  0  0  0  0
    0.0000    0.0000    0.0000 H   0  0  0  0  0  0  0  0  0  0  0  0
    0.0000    0.0000    0.0000 H   0  0  0  0  0  0  0  0  0  0  0  0
    0.0000    0.0000    0.0000 H   0  0  0  0  0  0  0  0  0  0  0  0
    0.0000    0.0000    0.0000 H   0  0  0  0  0  0  0  0  0  0  0  0
    0.0000    0.0000    0.0000 H   0  0  0  0  0  0  0  0  0  0  0  0
    0.0000    0.0000    0.0000 H   0  0  0  0  0  0  0  0  0  0  0  0
   12.3775    5.2518    9.0377 O   0  0  0  0  0  0  0  0  0  0  0  0
   11.9555    4.4097   10.0935 C   0  0  0  0  0  0  0  0  0  0  0  0
   11.6404    5.2057   11.2993 C   0  0  0  0  0  0  0  0  0  0  0  0
   11.7820    6.5650   11.2606 C   0  0  0  0  0  0  0  0  0  0  0  0
   11.4864    7.3142   12.3924 C   0  0  0  0  0  0  0  0  0  0  0  0
   11.0634    6.6614   13.5065 C   0  0  0  0  0  0  0  0  0  0  0  0
   10.9238    5.3009   13.5385 C   0  0  0  0  0  0  0  0  0  0  0  0
   11.2204    4.6076   12.4198 N   0  0  0  0  0  0  0  0  0  0  0  0
   11.0929    3.8687    9.7136 H   0  0  0  0  0  0  0  0  0  0  0  0
   12.7725    3.7056   10.3848 H   0  0  0  0  0  0  0  0  0  0  0  0
   12.1146    7.1272   10.3991 H   0  0  0  0  0  0  0  0  0  0  0  0
   11.5829    8.3942   12.4111 H   0  0  0  0  0  0  0  0  0  0  0  0
   10.8079    7.1771   14.4459 H   0  0  0  0  0  0  0  0  0  0  0  0
   10.5796    4.7876   14.4498 H   0  0  0  0  0  0  0  0  0  0  0  0
  1  3  2  0
  1  4  1  0
  1  5  1  0
  2  4  1  0
  2  6  1  0
  4  9  1  0
  4 15  1  0
  5  6  1  0
  5  8  1  0
  6  7  2  3
  9 10  2  0
  9 14  1  0
 10 11  1  0
 11 12  2  0
 12 13  1  0
 13 14  2  0
 15 16  2  0
 15 20  1  0
 16 17  1  0
 17 18  2  0
 18 19  1  0
 19 20  2  0
  2 21  1  0
  7 22  1  0
  8 23  1  0
  8 24  1  0
  8 25  1  0
 10 26  1  0
 11 27  1  0
 12 28  1  0
 13 29  1  0
 14 30  1  0
 16 31  1  0
 17 32  1  0
 19 33  1  0
 20 34  1  0
 35 36  1  0
 36 37  1  0
 37 38  2  0
 38 39  1  0
 39 40  2  0
 40 41  1  0
 41 42  2  0
 42 37  1  0
 36 43  1  0
 36 44  1  0
 38 45  1  0
 39 46  1  0
 40 47  1  0
 41 48  1  0
 18 35  1  0
M  END
>  <attachment_point>  (432) 
32

>  <score>  (432) 
<NA>

$$$$
4djw
     RDKit          3D

 52 55  0  0  0  0  0  0  0  0999 V2000
   22.4950   11.8750   22.5810 C   0  0  0  0  0  0  0  0  0  0  0  0
   22.5380    9.4930   22.4640 N   0  0  0  0  0  0  0  0  0  0  0  0
   22.3600   13.0630   22.3480 O   0  0  0  0  0  0  0  0  0  0  0  0
   22.3390   10.6680   21.5610 C   0  0  0  0  0  0  0  0  0  0  0  0
   22.7860   11.3350   23.8120 N   0  0  0  0  0  0  0  0  0  0  0  0
   22.7800    9.9140   23.7010 C   0  0  0  0  0  0  0  0  0  0  0  0
   22.9970    9.1110   24.7490 N   0  0  0  0  0  0  0  0  0  0  0  0
   23.0220   12.1410   25.0180 C   0  0  0  0  0  0  0  0  0  0  0  0
   20.9020   10.6270   21.0050 C   0  0  0  0  0  0  0  0  0  0  0  0
   20.2720    9.4140   20.7470 C   0  0  0  0  0  0  0  0  0  0  0  0
   18.9690    9.3760   20.2600 C   0  0  0  0  0  0  0  0  0  0  0  0
   18.2800   10.5440   20.0210 C   0  0  0  0  0  0  0  0  0  0  0  0
   18.8920   11.7530   20.2590 C   0  0  0  0  0  0  0  0  0  0  0  0
   20.1950   11.7970   20.7440 C   0  0  0  0  0  0  0  0  0  0  0  0
   23.4880   10.6920   20.5300 C   0  0  0  0  0  0  0  0  0  0  0  0
   23.2110   10.7890   19.1730 C   0  0  0  0  0  0  0  0  0  0  0  0
   24.2350   10.8650   18.2430 C   0  0  0  0  0  0  0  0  0  0  0  0
   25.5500   10.8410   18.6560 C   0  0  0  0  0  0  0  0  0  0  0  0
   25.8710   10.7460   20.0070 C   0  0  0  0  0  0  0  0  0  0  0  0
   24.8260   10.6610   20.9430 C   0  0  0  0  0  0  0  0  0  0  0  0
    0.0000    0.0000    0.0000 H   0  0  0  0  0  0  0  0  0  0  0  0
    0.0000    0.0000    0.0000 H   0  0  0  0  0  0  0  0  0  0  0  0
    0.0000    0.0000    0.0000 H   0  0  0  0  0  0  0  0  0  0  0  0
    0.0000    0.0000    0.0000 H   0  0  0  0  0  0  0  0  0  0  0  0
    0.0000    0.0000    0.0000 H   0  0  0  0  0  0  0  0  0  0  0  0
    0.0000    0.0000    0.0000 H   0  0  0  0  0  0  0  0  0  0  0  0
    0.0000    0.0000    0.0000 H   0  0  0  0  0  0  0  0  0  0  0  0
    0.0000    0.0000    0.0000 H   0  0  0  0  0  0  0  0  0  0  0  0
    0.0000    0.0000    0.0000 H   0  0  0  0  0  0  0  0  0  0  0  0
    0.0000    0.0000    0.0000 H   0  0  0  0  0  0  0  0  0  0  0  0
    0.0000    0.0000    0.0000 H   0  0  0  0  0  0  0  0  0  0  0  0
    0.0000    0.0000    0.0000 H   0  0  0  0  0  0  0  0  0  0  0  0
    0.0000    0.0000    0.0000 H   0  0  0  0  0  0  0  0  0  0  0  0
    0.0000    0.0000    0.0000 H   0  0  0  0  0  0  0  0  0  0  0  0
   12.4350    5.2762    9.0797 C   0  0  0  0  0  0  0  0  0  0  0  0
   11.3825    4.6706    9.9903 C   0  0  0  0  0  0  0  0  0  0  0  0
   11.9119    3.5795   10.7252 O   0  0  0  0  0  0  0  0  0  0  0  0
   11.1925    2.8441   11.6226 C   0  0  0  0  0  0  0  0  0  0  0  0
   11.8359    1.8040   12.2714 C   0  0  0  0  0  0  0  0  0  0  0  0
   11.1926    1.0115   13.1891 C   0  0  0  0  0  0  0  0  0  0  0  0
    9.8690    1.2273   13.4990 C   0  0  0  0  0  0  0  0  0  0  0  0
    9.1976    2.2677   12.8604 C   0  0  0  0  0  0  0  0  0  0  0  0
    9.8646    3.0554   11.9380 C   0  0  0  0  0  0  0  0  0  0  0  0
   12.9114    4.4819    8.4588 H   0  0  0  0  0  0  0  0  0  0  0  0
   11.9959    6.0726    8.4821 H   0  0  0  0  0  0  0  0  0  0  0  0
   10.5340    4.3761    9.3458 H   0  0  0  0  0  0  0  0  0  0  0  0
   11.0113    5.4727   10.6656 H   0  0  0  0  0  0  0  0  0  0  0  0
   12.8715    1.6000   12.0589 H   0  0  0  0  0  0  0  0  0  0  0  0
   11.6960    0.1899   13.7033 H   0  0  0  0  0  0  0  0  0  0  0  0
    9.3620    0.5990   14.2254 H   0  0  0  0  0  0  0  0  0  0  0  0
    8.1457    2.4594   13.0896 H   0  0  0  0  0  0  0  0  0  0  0  0
    9.3630    3.8648   11.4335 H   0  0  0  0  0  0  0  0  0  0  0  0
  1  3  2  0
  1  4  1  0
  1  5  1  0
  2  4  1  0
  2  6  1  0
  4  9  1  0
  4 15  1  0
  5  6  1  0
  5  8  1  0
  6  7  2  3
  9 10  2  0
  9 14  1  0
 10 11  1  0
 11 12  2  0
 12 13  1  0
 13 14  2  0
 15 16  2  0
 15 20  1  0
 16 17  1  0
 17 18  2  0
 18 19  1  0
 19 20  2  0
  2 21  1  0
  7 22  1  0
  8 23  1  0
  8 24  1  0
  8 25  1  0
 10 26  1  0
 11 27  1  0
 12 28  1  0
 13 29  1  0
 14 30  1  0
 16 31  1  0
 17 32  1  0
 19 33  1  0
 20 34  1  0
 35 36  1  0
 36 37  1  0
 37 38  1  0
 38 39  2  0
 39 40  1  0
 40 41  2  0
 41 42  1  0
 42 43  2  0
 43 38  1  0
 35 44  1  0
 35 45  1  0
 36 46  1  0
 36 47  1  0
 39 48  1  0
 40 49  1  0
 41 50  1  0
 42 51  1  0
 43 52  1  0
 18 35  1  0
M  END
>  <attachment_point>  (433) 
32

>  <score>  (433) 
<NA>

$$$$
4djw
     RDKit          3D

 47 50  0  0  0  0  0  0  0  0999 V2000
   22.4950   11.8750   22.5810 C   0  0  0  0  0  0  0  0  0  0  0  0
   22.5380    9.4930   22.4640 N   0  0  0  0  0  0  0  0  0  0  0  0
   22.3600   13.0630   22.3480 O   0  0  0  0  0  0  0  0  0  0  0  0
   22.3390   10.6680   21.5610 C   0  0  0  0  0  0  0  0  0  0  0  0
   22.7860   11.3350   23.8120 N   0  0  0  0  0  0  0  0  0  0  0  0
   22.7800    9.9140   23.7010 C   0  0  0  0  0  0  0  0  0  0  0  0
   22.9970    9.1110   24.7490 N   0  0  0  0  0  0  0  0  0  0  0  0
   23.0220   12.1410   25.0180 C   0  0  0  0  0  0  0  0  0  0  0  0
   20.9020   10.6270   21.0050 C   0  0  0  0  0  0  0  0  0  0  0  0
   20.2720    9.4140   20.7470 C   0  0  0  0  0  0  0  0  0  0  0  0
   18.9690    9.3760   20.2600 C   0  0  0  0  0  0  0  0  0  0  0  0
   18.2800   10.5440   20.0210 C   0  0  0  0  0  0  0  0  0  0  0  0
   18.8920   11.7530   20.2590 C   0  0  0  0  0  0  0  0  0  0  0  0
   20.1950   11.7970   20.7440 C   0  0  0  0  0  0  0  0  0  0  0  0
   23.4880   10.6920   20.5300 C   0  0  0  0  0  0  0  0  0  0  0  0
   23.2110   10.7890   19.1730 C   0  0  0  0  0  0  0  0  0  0  0  0
   24.2350   10.8650   18.2430 C   0  0  0  0  0  0  0  0  0  0  0  0
   25.5500   10.8410   18.6560 C   0  0  0  0  0  0  0  0  0  0  0  0
   25.8710   10.7460   20.0070 C   0  0  0  0  0  0  0  0  0  0  0  0
   24.8260   10.6610   20.9430 C   0  0  0  0  0  0  0  0  0  0  0  0
    0.0000    0.0000    0.0000 H   0  0  0  0  0  0  0  0  0  0  0  0
    0.0000    0.0000    0.0000 H   0  0  0  0  0  0  0  0  0  0  0  0
    0.0000    0.0000    0.0000 H   0  0  0  0  0  0  0  0  0  0  0  0
    0.0000    0.0000    0.0000 H   0  0  0  0  0  0  0  0  0  0  0  0
    0.0000    0.0000    0.0000 H   0  0  0  0  0  0  0  0  0  0  0  0
    0.0000    0.0000    0.0000 H   0  0  0  0  0  0  0  0  0  0  0  0
    0.0000    0.0000    0.0000 H   0  0  0  0  0  0  0  0  0  0  0  0
    0.0000    0.0000    0.0000 H   0  0  0  0  0  0  0  0  0  0  0  0
    0.0000    0.0000    0.0000 H   0  0  0  0  0  0  0  0  0  0  0  0
    0.0000    0.0000    0.0000 H   0  0  0  0  0  0  0  0  0  0  0  0
    0.0000    0.0000    0.0000 H   0  0  0  0  0  0  0  0  0  0  0  0
    0.0000    0.0000    0.0000 H   0  0  0  0  0  0  0  0  0  0  0  0
    0.0000    0.0000    0.0000 H   0  0  0  0  0  0  0  0  0  0  0  0
    0.0000    0.0000    0.0000 H   0  0  0  0  0  0  0  0  0  0  0  0
   12.3686    5.2481    9.0313 C   0  0  0  0  0  0  0  0  0  0  0  0
   12.3199    5.6250    7.7684 C   0  0  0  0  0  0  0  0  0  0  0  0
   11.2395    5.1703    6.9676 C   0  0  0  0  0  0  0  0  0  0  0  0
   11.2083    5.5753    5.6539 O   0  0  0  0  0  0  0  0  0  0  0  0
   10.2995    4.3589    7.5545 C   0  0  0  0  0  0  0  0  0  0  0  0
   10.4119    4.0051    8.8764 C   0  0  0  0  0  0  0  0  0  0  0  0
    9.4626    3.1875    9.4633 O   0  0  0  0  0  0  0  0  0  0  0  0
   11.4940    4.4634    9.6690 C   0  0  0  0  0  0  0  0  0  0  0  0
   13.0798    6.2654    7.3416 H   0  0  0  0  0  0  0  0  0  0  0  0
   10.3820    5.7775    5.1282 H   0  0  0  0  0  0  0  0  0  0  0  0
    9.4542    3.9984    6.9431 H   0  0  0  0  0  0  0  0  0  0  0  0
    8.4543    3.3668    9.4053 H   0  0  0  0  0  0  0  0  0  0  0  0
   11.5635    4.1744   10.7028 H   0  0  0  0  0  0  0  0  0  0  0  0
  1  3  2  0
  1  4  1  0
  1  5  1  0
  2  4  1  0
  2  6  1  0
  4  9  1  0
  4 15  1  0
  5  6  1  0
  5  8  1  0
  6  7  2  3
  9 10  2  0
  9 14  1  0
 10 11  1  0
 11 12  2  0
 12 13  1  0
 13 14  2  0
 15 16  2  0
 15 20  1  0
 16 17  1  0
 17 18  2  0
 18 19  1  0
 19 20  2  0
  2 21  1  0
  7 22  1  0
  8 23  1  0
  8 24  1  0
  8 25  1  0
 10 26  1  0
 11 27  1  0
 12 28  1  0
 13 29  1  0
 14 30  1  0
 16 31  1  0
 17 32  1  0
 19 33  1  0
 20 34  1  0
 35 36  2  0
 36 37  1  0
 37 38  1  0
 37 39  2  0
 39 40  1  0
 40 41  1  0
 40 42  2  0
 42 35  1  0
 36 43  1  0
 38 44  1  0
 39 45  1  0
 41 46  1  0
 42 47  1  0
 18 35  1  0
M  END
>  <attachment_point>  (434) 
32

>  <score>  (434) 
<NA>

$$$$
4djw
     RDKit          3D

 50 54  0  0  0  0  0  0  0  0999 V2000
   22.4950   11.8750   22.5810 C   0  0  0  0  0  0  0  0  0  0  0  0
   22.5380    9.4930   22.4640 N   0  0  0  0  0  0  0  0  0  0  0  0
   22.3600   13.0630   22.3480 O   0  0  0  0  0  0  0  0  0  0  0  0
   22.3390   10.6680   21.5610 C   0  0  0  0  0  0  0  0  0  0  0  0
   22.7860   11.3350   23.8120 N   0  0  0  0  0  0  0  0  0  0  0  0
   22.7800    9.9140   23.7010 C   0  0  0  0  0  0  0  0  0  0  0  0
   22.9970    9.1110   24.7490 N   0  0  0  0  0  0  0  0  0  0  0  0
   23.0220   12.1410   25.0180 C   0  0  0  0  0  0  0  0  0  0  0  0
   20.9020   10.6270   21.0050 C   0  0  0  0  0  0  0  0  0  0  0  0
   20.2720    9.4140   20.7470 C   0  0  0  0  0  0  0  0  0  0  0  0
   18.9690    9.3760   20.2600 C   0  0  0  0  0  0  0  0  0  0  0  0
   18.2800   10.5440   20.0210 C   0  0  0  0  0  0  0  0  0  0  0  0
   18.8920   11.7530   20.2590 C   0  0  0  0  0  0  0  0  0  0  0  0
   20.1950   11.7970   20.7440 C   0  0  0  0  0  0  0  0  0  0  0  0
   23.4880   10.6920   20.5300 C   0  0  0  0  0  0  0  0  0  0  0  0
   23.2110   10.7890   19.1730 C   0  0  0  0  0  0  0  0  0  0  0  0
   24.2350   10.8650   18.2430 C   0  0  0  0  0  0  0  0  0  0  0  0
   25.5500   10.8410   18.6560 C   0  0  0  0  0  0  0  0  0  0  0  0
   25.8710   10.7460   20.0070 C   0  0  0  0  0  0  0  0  0  0  0  0
   24.8260   10.6610   20.9430 C   0  0  0  0  0  0  0  0  0  0  0  0
    0.0000    0.0000    0.0000 H   0  0  0  0  0  0  0  0  0  0  0  0
    0.0000    0.0000    0.0000 H   0  0  0  0  0  0  0  0  0  0  0  0
    0.0000    0.0000    0.0000 H   0  0  0  0  0  0  0  0  0  0  0  0
    0.0000    0.0000    0.0000 H   0  0  0  0  0  0  0  0  0  0  0  0
    0.0000    0.0000    0.0000 H   0  0  0  0  0  0  0  0  0  0  0  0
    0.0000    0.0000    0.0000 H   0  0  0  0  0  0  0  0  0  0  0  0
    0.0000    0.0000    0.0000 H   0  0  0  0  0  0  0  0  0  0  0  0
    0.0000    0.0000    0.0000 H   0  0  0  0  0  0  0  0  0  0  0  0
    0.0000    0.0000    0.0000 H   0  0  0  0  0  0  0  0  0  0  0  0
    0.0000    0.0000    0.0000 H   0  0  0  0  0  0  0  0  0  0  0  0
    0.0000    0.0000    0.0000 H   0  0  0  0  0  0  0  0  0  0  0  0
    0.0000    0.0000    0.0000 H   0  0  0  0  0  0  0  0  0  0  0  0
    0.0000    0.0000    0.0000 H   0  0  0  0  0  0  0  0  0  0  0  0
    0.0000    0.0000    0.0000 H   0  0  0  0  0  0  0  0  0  0  0  0
   12.4192    5.2695    9.0682 C   0  0  0  0  0  0  0  0  0  0  0  0
   11.1529    5.6276    9.4528 C   0  0  0  0  0  0  0  0  0  0  0  0
   10.0506    5.1990    8.7053 C   0  0  0  0  0  0  0  0  0  0  0  0
   10.2692    4.4196    7.5898 C   0  0  0  0  0  0  0  0  0  0  0  0
   11.5620    4.0818    7.2378 C   0  0  0  0  0  0  0  0  0  0  0  0
   11.7962    3.3281    6.1616 N   0  0  0  0  0  0  0  0  0  0  0  0
   13.0428    2.9816    5.7920 C   0  0  0  0  0  0  0  0  0  0  0  0
   14.1630    3.3774    6.4934 C   0  0  0  0  0  0  0  0  0  0  0  0
   13.9667    4.1577    7.6127 C   0  0  0  0  0  0  0  0  0  0  0  0
   12.6718    4.5008    7.9722 C   0  0  0  0  0  0  0  0  0  0  0  0
   10.9764    6.2434   10.3336 H   0  0  0  0  0  0  0  0  0  0  0  0
    9.0489    5.4699    8.9913 H   0  0  0  0  0  0  0  0  0  0  0  0
    9.4027    4.0984    7.0253 H   0  0  0  0  0  0  0  0  0  0  0  0
   13.1200    2.3643    4.8982 H   0  0  0  0  0  0  0  0  0  0  0  0
   15.1676    3.0773    6.1650 H   0  0  0  0  0  0  0  0  0  0  0  0
   14.8257    4.4843    8.1843 H   0  0  0  0  0  0  0  0  0  0  0  0
  1  3  2  0
  1  4  1  0
  1  5  1  0
  2  4  1  0
  2  6  1  0
  4  9  1  0
  4 15  1  0
  5  6  1  0
  5  8  1  0
  6  7  2  3
  9 10  2  0
  9 14  1  0
 10 11  1  0
 11 12  2  0
 12 13  1  0
 13 14  2  0
 15 16  2  0
 15 20  1  0
 16 17  1  0
 17 18  2  0
 18 19  1  0
 19 20  2  0
  2 21  1  0
  7 22  1  0
  8 23  1  0
  8 24  1  0
  8 25  1  0
 10 26  1  0
 11 27  1  0
 12 28  1  0
 13 29  1  0
 14 30  1  0
 16 31  1  0
 17 32  1  0
 19 33  1  0
 20 34  1  0
 35 36  2  0
 36 37  1  0
 37 38  2  0
 38 39  1  0
 39 40  2  0
 40 41  1  0
 41 42  2  0
 42 43  1  0
 43 44  2  0
 44 35  1  0
 44 39  1  0
 36 45  1  0
 37 46  1  0
 38 47  1  0
 41 48  1  0
 42 49  1  0
 43 50  1  0
 18 35  1  0
M  END
>  <attachment_point>  (435) 
32

>  <score>  (435) 
<NA>

$$$$
4djw
     RDKit          3D

 51 54  0  0  0  0  0  0  0  0999 V2000
   22.4950   11.8750   22.5810 C   0  0  0  0  0  0  0  0  0  0  0  0
   22.5380    9.4930   22.4640 N   0  0  0  0  0  0  0  0  0  0  0  0
   22.3600   13.0630   22.3480 O   0  0  0  0  0  0  0  0  0  0  0  0
   22.3390   10.6680   21.5610 C   0  0  0  0  0  0  0  0  0  0  0  0
   22.7860   11.3350   23.8120 N   0  0  0  0  0  0  0  0  0  0  0  0
   22.7800    9.9140   23.7010 C   0  0  0  0  0  0  0  0  0  0  0  0
   22.9970    9.1110   24.7490 N   0  0  0  0  0  0  0  0  0  0  0  0
   23.0220   12.1410   25.0180 C   0  0  0  0  0  0  0  0  0  0  0  0
   20.9020   10.6270   21.0050 C   0  0  0  0  0  0  0  0  0  0  0  0
   20.2720    9.4140   20.7470 C   0  0  0  0  0  0  0  0  0  0  0  0
   18.9690    9.3760   20.2600 C   0  0  0  0  0  0  0  0  0  0  0  0
   18.2800   10.5440   20.0210 C   0  0  0  0  0  0  0  0  0  0  0  0
   18.8920   11.7530   20.2590 C   0  0  0  0  0  0  0  0  0  0  0  0
   20.1950   11.7970   20.7440 C   0  0  0  0  0  0  0  0  0  0  0  0
   23.4880   10.6920   20.5300 C   0  0  0  0  0  0  0  0  0  0  0  0
   23.2110   10.7890   19.1730 C   0  0  0  0  0  0  0  0  0  0  0  0
   24.2350   10.8650   18.2430 C   0  0  0  0  0  0  0  0  0  0  0  0
   25.5500   10.8410   18.6560 C   0  0  0  0  0  0  0  0  0  0  0  0
   25.8710   10.7460   20.0070 C   0  0  0  0  0  0  0  0  0  0  0  0
   24.8260   10.6610   20.9430 C   0  0  0  0  0  0  0  0  0  0  0  0
    0.0000    0.0000    0.0000 H   0  0  0  0  0  0  0  0  0  0  0  0
    0.0000    0.0000    0.0000 H   0  0  0  0  0  0  0  0  0  0  0  0
    0.0000    0.0000    0.0000 H   0  0  0  0  0  0  0  0  0  0  0  0
    0.0000    0.0000    0.0000 H   0  0  0  0  0  0  0  0  0  0  0  0
    0.0000    0.0000    0.0000 H   0  0  0  0  0  0  0  0  0  0  0  0
    0.0000    0.0000    0.0000 H   0  0  0  0  0  0  0  0  0  0  0  0
    0.0000    0.0000    0.0000 H   0  0  0  0  0  0  0  0  0  0  0  0
    0.0000    0.0000    0.0000 H   0  0  0  0  0  0  0  0  0  0  0  0
    0.0000    0.0000    0.0000 H   0  0  0  0  0  0  0  0  0  0  0  0
    0.0000    0.0000    0.0000 H   0  0  0  0  0  0  0  0  0  0  0  0
    0.0000    0.0000    0.0000 H   0  0  0  0  0  0  0  0  0  0  0  0
    0.0000    0.0000    0.0000 H   0  0  0  0  0  0  0  0  0  0  0  0
    0.0000    0.0000    0.0000 H   0  0  0  0  0  0  0  0  0  0  0  0
    0.0000    0.0000    0.0000 H   0  0  0  0  0  0  0  0  0  0  0  0
   12.4883    5.2989    9.1187 N   0  0  0  0  0  0  0  0  0  0  0  0
   11.1758    5.5080    9.6161 C   0  0  0  0  0  0  0  0  0  0  0  0
   10.5508    4.2578   10.1911 C   0  0  0  0  0  0  0  0  0  0  0  0
   10.5788    3.1163    9.2141 C   0  0  0  0  0  0  0  0  0  0  0  0
   11.9679    2.9221    8.7326 C   0  0  2  0  0  0  0  0  0  0  0  0
   12.6968    2.3090    9.7772 O   0  0  0  0  0  0  0  0  0  0  0  0
   12.6801    4.1530    8.3062 C   0  0  0  0  0  0  0  0  0  0  0  0
   11.2563    6.2304   10.4823 H   0  0  0  0  0  0  0  0  0  0  0  0
   10.4980    6.0274    8.8936 H   0  0  0  0  0  0  0  0  0  0  0  0
    9.5131    4.4470   10.4678 H   0  0  0  0  0  0  0  0  0  0  0  0
   11.1889    3.9665   11.0645 H   0  0  0  0  0  0  0  0  0  0  0  0
   10.2990    2.1925    9.8015 H   0  0  0  0  0  0  0  0  0  0  0  0
    9.8205    3.1946    8.4206 H   0  0  0  0  0  0  0  0  0  0  0  0
   11.9380    2.2135    7.8666 H   0  0  0  0  0  0  0  0  0  0  0  0
   12.8609    1.3535    9.5427 H   0  0  0  0  0  0  0  0  0  0  0  0
   13.7829    3.8997    8.3561 H   0  0  0  0  0  0  0  0  0  0  0  0
   12.5205    4.3886    7.2126 H   0  0  0  0  0  0  0  0  0  0  0  0
  1  3  2  0
  1  4  1  0
  1  5  1  0
  2  4  1  0
  2  6  1  0
  4  9  1  0
  4 15  1  0
  5  6  1  0
  5  8  1  0
  6  7  2  3
  9 10  2  0
  9 14  1  0
 10 11  1  0
 11 12  2  0
 12 13  1  0
 13 14  2  0
 15 16  2  0
 15 20  1  0
 16 17  1  0
 17 18  2  0
 18 19  1  0
 19 20  2  0
  2 21  1  0
  7 22  1  0
  8 23  1  0
  8 24  1  0
  8 25  1  0
 10 26  1  0
 11 27  1  0
 12 28  1  0
 13 29  1  0
 14 30  1  0
 16 31  1  0
 17 32  1  0
 19 33  1  0
 20 34  1  0
 35 36  1  0
 36 37  1  0
 37 38  1  0
 38 39  1  0
 39 40  1  0
 39 41  1  0
 41 35  1  0
 36 42  1  0
 36 43  1  0
 37 44  1  0
 37 45  1  0
 38 46  1  0
 38 47  1  0
 39 48  1  6
 40 49  1  0
 41 50  1  0
 41 51  1  0
 18 35  1  0
M  END
>  <attachment_point>  (436) 
32

>  <score>  (436) 
<NA>

$$$$
4djw
     RDKit          3D

 46 49  0  0  0  0  0  0  0  0999 V2000
   22.4950   11.8750   22.5810 C   0  0  0  0  0  0  0  0  0  0  0  0
   22.5380    9.4930   22.4640 N   0  0  0  0  0  0  0  0  0  0  0  0
   22.3600   13.0630   22.3480 O   0  0  0  0  0  0  0  0  0  0  0  0
   22.3390   10.6680   21.5610 C   0  0  0  0  0  0  0  0  0  0  0  0
   22.7860   11.3350   23.8120 N   0  0  0  0  0  0  0  0  0  0  0  0
   22.7800    9.9140   23.7010 C   0  0  0  0  0  0  0  0  0  0  0  0
   22.9970    9.1110   24.7490 N   0  0  0  0  0  0  0  0  0  0  0  0
   23.0220   12.1410   25.0180 C   0  0  0  0  0  0  0  0  0  0  0  0
   20.9020   10.6270   21.0050 C   0  0  0  0  0  0  0  0  0  0  0  0
   20.2720    9.4140   20.7470 C   0  0  0  0  0  0  0  0  0  0  0  0
   18.9690    9.3760   20.2600 C   0  0  0  0  0  0  0  0  0  0  0  0
   18.2800   10.5440   20.0210 C   0  0  0  0  0  0  0  0  0  0  0  0
   18.8920   11.7530   20.2590 C   0  0  0  0  0  0  0  0  0  0  0  0
   20.1950   11.7970   20.7440 C   0  0  0  0  0  0  0  0  0  0  0  0
   23.4880   10.6920   20.5300 C   0  0  0  0  0  0  0  0  0  0  0  0
   23.2110   10.7890   19.1730 C   0  0  0  0  0  0  0  0  0  0  0  0
   24.2350   10.8650   18.2430 C   0  0  0  0  0  0  0  0  0  0  0  0
   25.5500   10.8410   18.6560 C   0  0  0  0  0  0  0  0  0  0  0  0
   25.8710   10.7460   20.0070 C   0  0  0  0  0  0  0  0  0  0  0  0
   24.8260   10.6610   20.9430 C   0  0  0  0  0  0  0  0  0  0  0  0
    0.0000    0.0000    0.0000 H   0  0  0  0  0  0  0  0  0  0  0  0
    0.0000    0.0000    0.0000 H   0  0  0  0  0  0  0  0  0  0  0  0
    0.0000    0.0000    0.0000 H   0  0  0  0  0  0  0  0  0  0  0  0
    0.0000    0.0000    0.0000 H   0  0  0  0  0  0  0  0  0  0  0  0
    0.0000    0.0000    0.0000 H   0  0  0  0  0  0  0  0  0  0  0  0
    0.0000    0.0000    0.0000 H   0  0  0  0  0  0  0  0  0  0  0  0
    0.0000    0.0000    0.0000 H   0  0  0  0  0  0  0  0  0  0  0  0
    0.0000    0.0000    0.0000 H   0  0  0  0  0  0  0  0  0  0  0  0
    0.0000    0.0000    0.0000 H   0  0  0  0  0  0  0  0  0  0  0  0
    0.0000    0.0000    0.0000 H   0  0  0  0  0  0  0  0  0  0  0  0
    0.0000    0.0000    0.0000 H   0  0  0  0  0  0  0  0  0  0  0  0
    0.0000    0.0000    0.0000 H   0  0  0  0  0  0  0  0  0  0  0  0
    0.0000    0.0000    0.0000 H   0  0  0  0  0  0  0  0  0  0  0  0
    0.0000    0.0000    0.0000 H   0  0  0  0  0  0  0  0  0  0  0  0
   12.3694    5.2484    9.0318 N   0  0  0  0  0  0  0  0  0  0  0  0
   12.6976    4.1449    8.3086 C   0  0  0  0  0  0  0  0  0  0  0  0
   13.8744    3.6505    8.3981 O   0  0  0  0  0  0  0  0  0  0  0  0
   11.6881    3.5110    7.4123 C   0  0  0  0  0  0  0  0  0  0  0  0
   10.8240    4.4121    6.5489 C   0  0  0  0  0  0  0  0  0  0  0  0
   10.2495    3.6524    7.7014 C   0  0  0  0  0  0  0  0  0  0  0  0
   11.6127    5.8126    9.1650 H   0  0  0  0  0  0  0  0  0  0  0  0
   12.0668    2.6251    6.8780 H   0  0  0  0  0  0  0  0  0  0  0  0
   11.0318    5.4836    6.6557 H   0  0  0  0  0  0  0  0  0  0  0  0
   10.5661    4.0641    5.5118 H   0  0  0  0  0  0  0  0  0  0  0  0
    9.9348    4.2879    8.5574 H   0  0  0  0  0  0  0  0  0  0  0  0
    9.6205    2.7794    7.5231 H   0  0  0  0  0  0  0  0  0  0  0  0
  1  3  2  0
  1  4  1  0
  1  5  1  0
  2  4  1  0
  2  6  1  0
  4  9  1  0
  4 15  1  0
  5  6  1  0
  5  8  1  0
  6  7  2  3
  9 10  2  0
  9 14  1  0
 10 11  1  0
 11 12  2  0
 12 13  1  0
 13 14  2  0
 15 16  2  0
 15 20  1  0
 16 17  1  0
 17 18  2  0
 18 19  1  0
 19 20  2  0
  2 21  1  0
  7 22  1  0
  8 23  1  0
  8 24  1  0
  8 25  1  0
 10 26  1  0
 11 27  1  0
 12 28  1  0
 13 29  1  0
 14 30  1  0
 16 31  1  0
 17 32  1  0
 19 33  1  0
 20 34  1  0
 35 36  1  0
 36 37  2  0
 36 38  1  0
 38 39  1  0
 39 40  1  0
 40 38  1  0
 35 41  1  0
 38 42  1  0
 39 43  1  0
 39 44  1  0
 40 45  1  0
 40 46  1  0
 18 35  1  0
M  END
>  <attachment_point>  (437) 
32

>  <score>  (437) 
<NA>

$$$$
4djw
     RDKit          3D

 47 49  0  0  0  0  0  0  0  0999 V2000
   22.4950   11.8750   22.5810 C   0  0  0  0  0  0  0  0  0  0  0  0
   22.5380    9.4930   22.4640 N   0  0  0  0  0  0  0  0  0  0  0  0
   22.3600   13.0630   22.3480 O   0  0  0  0  0  0  0  0  0  0  0  0
   22.3390   10.6680   21.5610 C   0  0  0  0  0  0  0  0  0  0  0  0
   22.7860   11.3350   23.8120 N   0  0  0  0  0  0  0  0  0  0  0  0
   22.7800    9.9140   23.7010 C   0  0  0  0  0  0  0  0  0  0  0  0
   22.9970    9.1110   24.7490 N   0  0  0  0  0  0  0  0  0  0  0  0
   23.0220   12.1410   25.0180 C   0  0  0  0  0  0  0  0  0  0  0  0
   20.9020   10.6270   21.0050 C   0  0  0  0  0  0  0  0  0  0  0  0
   20.2720    9.4140   20.7470 C   0  0  0  0  0  0  0  0  0  0  0  0
   18.9690    9.3760   20.2600 C   0  0  0  0  0  0  0  0  0  0  0  0
   18.2800   10.5440   20.0210 C   0  0  0  0  0  0  0  0  0  0  0  0
   18.8920   11.7530   20.2590 C   0  0  0  0  0  0  0  0  0  0  0  0
   20.1950   11.7970   20.7440 C   0  0  0  0  0  0  0  0  0  0  0  0
   23.4880   10.6920   20.5300 C   0  0  0  0  0  0  0  0  0  0  0  0
   23.2110   10.7890   19.1730 C   0  0  0  0  0  0  0  0  0  0  0  0
   24.2350   10.8650   18.2430 C   0  0  0  0  0  0  0  0  0  0  0  0
   25.5500   10.8410   18.6560 C   0  0  0  0  0  0  0  0  0  0  0  0
   25.8710   10.7460   20.0070 C   0  0  0  0  0  0  0  0  0  0  0  0
   24.8260   10.6610   20.9430 C   0  0  0  0  0  0  0  0  0  0  0  0
    0.0000    0.0000    0.0000 H   0  0  0  0  0  0  0  0  0  0  0  0
    0.0000    0.0000    0.0000 H   0  0  0  0  0  0  0  0  0  0  0  0
    0.0000    0.0000    0.0000 H   0  0  0  0  0  0  0  0  0  0  0  0
    0.0000    0.0000    0.0000 H   0  0  0  0  0  0  0  0  0  0  0  0
    0.0000    0.0000    0.0000 H   0  0  0  0  0  0  0  0  0  0  0  0
    0.0000    0.0000    0.0000 H   0  0  0  0  0  0  0  0  0  0  0  0
    0.0000    0.0000    0.0000 H   0  0  0  0  0  0  0  0  0  0  0  0
    0.0000    0.0000    0.0000 H   0  0  0  0  0  0  0  0  0  0  0  0
    0.0000    0.0000    0.0000 H   0  0  0  0  0  0  0  0  0  0  0  0
    0.0000    0.0000    0.0000 H   0  0  0  0  0  0  0  0  0  0  0  0
    0.0000    0.0000    0.0000 H   0  0  0  0  0  0  0  0  0  0  0  0
    0.0000    0.0000    0.0000 H   0  0  0  0  0  0  0  0  0  0  0  0
    0.0000    0.0000    0.0000 H   0  0  0  0  0  0  0  0  0  0  0  0
    0.0000    0.0000    0.0000 H   0  0  0  0  0  0  0  0  0  0  0  0
   12.4585    5.2862    9.0969 C   0  0  2  0  0  0  0  0  0  0  0  0
   11.2996    4.9385    9.9730 C   0  0  0  0  0  0  0  0  0  0  0  0
   12.9337    4.1679    8.2285 C   0  0  0  0  0  0  0  0  0  0  0  0
   14.0493    4.7111    7.3476 C   0  0  0  0  0  0  0  0  0  0  0  0
   12.1275    6.1144    8.4193 H   0  0  0  0  0  0  0  0  0  0  0  0
   11.4143    3.9675   10.5019 H   0  0  0  0  0  0  0  0  0  0  0  0
   10.3115    5.0292    9.4610 H   0  0  0  0  0  0  0  0  0  0  0  0
   11.2639    5.7131   10.7926 H   0  0  0  0  0  0  0  0  0  0  0  0
   12.1254    3.7491    7.5827 H   0  0  0  0  0  0  0  0  0  0  0  0
   13.3547    3.3192    8.7950 H   0  0  0  0  0  0  0  0  0  0  0  0
   14.9837    4.1513    7.4561 H   0  0  0  0  0  0  0  0  0  0  0  0
   14.2801    5.7739    7.5758 H   0  0  0  0  0  0  0  0  0  0  0  0
   13.7189    4.7011    6.2765 H   0  0  0  0  0  0  0  0  0  0  0  0
  1  3  2  0
  1  4  1  0
  1  5  1  0
  2  4  1  0
  2  6  1  0
  4  9  1  0
  4 15  1  0
  5  6  1  0
  5  8  1  0
  6  7  2  3
  9 10  2  0
  9 14  1  0
 10 11  1  0
 11 12  2  0
 12 13  1  0
 13 14  2  0
 15 16  2  0
 15 20  1  0
 16 17  1  0
 17 18  2  0
 18 19  1  0
 19 20  2  0
  2 21  1  0
  7 22  1  0
  8 23  1  0
  8 24  1  0
  8 25  1  0
 10 26  1  0
 11 27  1  0
 12 28  1  0
 13 29  1  0
 14 30  1  0
 16 31  1  0
 17 32  1  0
 19 33  1  0
 20 34  1  0
 35 36  1  0
 35 37  1  0
 37 38  1  0
 35 39  1  1
 36 40  1  0
 36 41  1  0
 36 42  1  0
 37 43  1  0
 37 44  1  0
 38 45  1  0
 38 46  1  0
 38 47  1  0
 18 35  1  0
M  END
>  <attachment_point>  (438) 
32

>  <score>  (438) 
<NA>

$$$$
4djw
     RDKit          3D

 44 47  0  0  0  0  0  0  0  0999 V2000
   22.4950   11.8750   22.5810 C   0  0  0  0  0  0  0  0  0  0  0  0
   22.5380    9.4930   22.4640 N   0  0  0  0  0  0  0  0  0  0  0  0
   22.3600   13.0630   22.3480 O   0  0  0  0  0  0  0  0  0  0  0  0
   22.3390   10.6680   21.5610 C   0  0  0  0  0  0  0  0  0  0  0  0
   22.7860   11.3350   23.8120 N   0  0  0  0  0  0  0  0  0  0  0  0
   22.7800    9.9140   23.7010 C   0  0  0  0  0  0  0  0  0  0  0  0
   22.9970    9.1110   24.7490 N   0  0  0  0  0  0  0  0  0  0  0  0
   23.0220   12.1410   25.0180 C   0  0  0  0  0  0  0  0  0  0  0  0
   20.9020   10.6270   21.0050 C   0  0  0  0  0  0  0  0  0  0  0  0
   20.2720    9.4140   20.7470 C   0  0  0  0  0  0  0  0  0  0  0  0
   18.9690    9.3760   20.2600 C   0  0  0  0  0  0  0  0  0  0  0  0
   18.2800   10.5440   20.0210 C   0  0  0  0  0  0  0  0  0  0  0  0
   18.8920   11.7530   20.2590 C   0  0  0  0  0  0  0  0  0  0  0  0
   20.1950   11.7970   20.7440 C   0  0  0  0  0  0  0  0  0  0  0  0
   23.4880   10.6920   20.5300 C   0  0  0  0  0  0  0  0  0  0  0  0
   23.2110   10.7890   19.1730 C   0  0  0  0  0  0  0  0  0  0  0  0
   24.2350   10.8650   18.2430 C   0  0  0  0  0  0  0  0  0  0  0  0
   25.5500   10.8410   18.6560 C   0  0  0  0  0  0  0  0  0  0  0  0
   25.8710   10.7460   20.0070 C   0  0  0  0  0  0  0  0  0  0  0  0
   24.8260   10.6610   20.9430 C   0  0  0  0  0  0  0  0  0  0  0  0
    0.0000    0.0000    0.0000 H   0  0  0  0  0  0  0  0  0  0  0  0
    0.0000    0.0000    0.0000 H   0  0  0  0  0  0  0  0  0  0  0  0
    0.0000    0.0000    0.0000 H   0  0  0  0  0  0  0  0  0  0  0  0
    0.0000    0.0000    0.0000 H   0  0  0  0  0  0  0  0  0  0  0  0
    0.0000    0.0000    0.0000 H   0  0  0  0  0  0  0  0  0  0  0  0
    0.0000    0.0000    0.0000 H   0  0  0  0  0  0  0  0  0  0  0  0
    0.0000    0.0000    0.0000 H   0  0  0  0  0  0  0  0  0  0  0  0
    0.0000    0.0000    0.0000 H   0  0  0  0  0  0  0  0  0  0  0  0
    0.0000    0.0000    0.0000 H   0  0  0  0  0  0  0  0  0  0  0  0
    0.0000    0.0000    0.0000 H   0  0  0  0  0  0  0  0  0  0  0  0
    0.0000    0.0000    0.0000 H   0  0  0  0  0  0  0  0  0  0  0  0
    0.0000    0.0000    0.0000 H   0  0  0  0  0  0  0  0  0  0  0  0
    0.0000    0.0000    0.0000 H   0  0  0  0  0  0  0  0  0  0  0  0
    0.0000    0.0000    0.0000 H   0  0  0  0  0  0  0  0  0  0  0  0
   12.3921    5.2581    9.0484 C   0  0  0  0  0  0  0  0  0  0  0  0
   12.7081    5.7483    7.7244 N   0  0  0  0  0  0  0  0  0  0  0  0
   13.4270    5.0827    6.8012 C   0  0  0  0  0  0  0  0  0  0  0  0
   13.4674    5.9073    5.7377 N   0  0  0  0  0  0  0  0  0  0  0  0
   12.7877    7.0451    6.0135 C   0  0  0  0  0  0  0  0  0  0  0  0
   12.3237    6.9128    7.2691 N   0  0  0  0  0  0  0  0  0  0  0  0
   12.4472    4.1711    9.1445 H   0  0  0  0  0  0  0  0  0  0  0  0
   11.5204    5.7269    9.5037 H   0  0  0  0  0  0  0  0  0  0  0  0
   13.8776    4.1153    6.8680 H   0  0  0  0  0  0  0  0  0  0  0  0
   12.6758    7.8527    5.3315 H   0  0  0  0  0  0  0  0  0  0  0  0
  1  3  2  0
  1  4  1  0
  1  5  1  0
  2  4  1  0
  2  6  1  0
  4  9  1  0
  4 15  1  0
  5  6  1  0
  5  8  1  0
  6  7  2  3
  9 10  2  0
  9 14  1  0
 10 11  1  0
 11 12  2  0
 12 13  1  0
 13 14  2  0
 15 16  2  0
 15 20  1  0
 16 17  1  0
 17 18  2  0
 18 19  1  0
 19 20  2  0
  2 21  1  0
  7 22  1  0
  8 23  1  0
  8 24  1  0
  8 25  1  0
 10 26  1  0
 11 27  1  0
 12 28  1  0
 13 29  1  0
 14 30  1  0
 16 31  1  0
 17 32  1  0
 19 33  1  0
 20 34  1  0
 35 36  1  0
 36 37  1  0
 37 38  2  0
 38 39  1  0
 39 40  2  0
 40 36  1  0
 35 41  1  0
 35 42  1  0
 37 43  1  0
 39 44  1  0
 18 35  1  0
M  END
>  <attachment_point>  (439) 
32

>  <score>  (439) 
<NA>

$$$$
4djw
     RDKit          3D

 47 50  0  0  0  0  0  0  0  0999 V2000
   22.4950   11.8750   22.5810 C   0  0  0  0  0  0  0  0  0  0  0  0
   22.5380    9.4930   22.4640 N   0  0  0  0  0  0  0  0  0  0  0  0
   22.3600   13.0630   22.3480 O   0  0  0  0  0  0  0  0  0  0  0  0
   22.3390   10.6680   21.5610 C   0  0  0  0  0  0  0  0  0  0  0  0
   22.7860   11.3350   23.8120 N   0  0  0  0  0  0  0  0  0  0  0  0
   22.7800    9.9140   23.7010 C   0  0  0  0  0  0  0  0  0  0  0  0
   22.9970    9.1110   24.7490 N   0  0  0  0  0  0  0  0  0  0  0  0
   23.0220   12.1410   25.0180 C   0  0  0  0  0  0  0  0  0  0  0  0
   20.9020   10.6270   21.0050 C   0  0  0  0  0  0  0  0  0  0  0  0
   20.2720    9.4140   20.7470 C   0  0  0  0  0  0  0  0  0  0  0  0
   18.9690    9.3760   20.2600 C   0  0  0  0  0  0  0  0  0  0  0  0
   18.2800   10.5440   20.0210 C   0  0  0  0  0  0  0  0  0  0  0  0
   18.8920   11.7530   20.2590 C   0  0  0  0  0  0  0  0  0  0  0  0
   20.1950   11.7970   20.7440 C   0  0  0  0  0  0  0  0  0  0  0  0
   23.4880   10.6920   20.5300 C   0  0  0  0  0  0  0  0  0  0  0  0
   23.2110   10.7890   19.1730 C   0  0  0  0  0  0  0  0  0  0  0  0
   24.2350   10.8650   18.2430 C   0  0  0  0  0  0  0  0  0  0  0  0
   25.5500   10.8410   18.6560 C   0  0  0  0  0  0  0  0  0  0  0  0
   25.8710   10.7460   20.0070 C   0  0  0  0  0  0  0  0  0  0  0  0
   24.8260   10.6610   20.9430 C   0  0  0  0  0  0  0  0  0  0  0  0
    0.0000    0.0000    0.0000 H   0  0  0  0  0  0  0  0  0  0  0  0
    0.0000    0.0000    0.0000 H   0  0  0  0  0  0  0  0  0  0  0  0
    0.0000    0.0000    0.0000 H   0  0  0  0  0  0  0  0  0  0  0  0
    0.0000    0.0000    0.0000 H   0  0  0  0  0  0  0  0  0  0  0  0
    0.0000    0.0000    0.0000 H   0  0  0  0  0  0  0  0  0  0  0  0
    0.0000    0.0000    0.0000 H   0  0  0  0  0  0  0  0  0  0  0  0
    0.0000    0.0000    0.0000 H   0  0  0  0  0  0  0  0  0  0  0  0
    0.0000    0.0000    0.0000 H   0  0  0  0  0  0  0  0  0  0  0  0
    0.0000    0.0000    0.0000 H   0  0  0  0  0  0  0  0  0  0  0  0
    0.0000    0.0000    0.0000 H   0  0  0  0  0  0  0  0  0  0  0  0
    0.0000    0.0000    0.0000 H   0  0  0  0  0  0  0  0  0  0  0  0
    0.0000    0.0000    0.0000 H   0  0  0  0  0  0  0  0  0  0  0  0
    0.0000    0.0000    0.0000 H   0  0  0  0  0  0  0  0  0  0  0  0
    0.0000    0.0000    0.0000 H   0  0  0  0  0  0  0  0  0  0  0  0
   12.4992    5.3035    9.1266 O   0  0  0  0  0  0  0  0  0  0  0  0
   11.1321    5.4835    9.3597 C   0  0  0  0  0  0  0  0  0  0  0  0
   10.1841    4.9771    8.4987 C   0  0  0  0  0  0  0  0  0  0  0  0
    8.8301    5.1566    8.7315 C   0  0  0  0  0  0  0  0  0  0  0  0
    8.4319    5.8606    9.8549 C   0  0  0  0  0  0  0  0  0  0  0  0
    6.7379    6.1031   10.1753 Cl  0  0  0  0  0  0  0  0  0  0  0  0
    9.4049    6.3619   10.7088 C   0  0  0  0  0  0  0  0  0  0  0  0
   10.7528    6.1846   10.4793 C   0  0  0  0  0  0  0  0  0  0  0  0
   11.6940    6.7048   11.3625 O   0  0  0  0  0  0  0  0  0  0  0  0
   10.5026    4.4206    7.6107 H   0  0  0  0  0  0  0  0  0  0  0  0
    8.0947    4.7710    8.0751 H   0  0  0  0  0  0  0  0  0  0  0  0
    9.1320    6.9229   11.6061 H   0  0  0  0  0  0  0  0  0  0  0  0
   11.8762    6.2024   12.2400 H   0  0  0  0  0  0  0  0  0  0  0  0
  1  3  2  0
  1  4  1  0
  1  5  1  0
  2  4  1  0
  2  6  1  0
  4  9  1  0
  4 15  1  0
  5  6  1  0
  5  8  1  0
  6  7  2  3
  9 10  2  0
  9 14  1  0
 10 11  1  0
 11 12  2  0
 12 13  1  0
 13 14  2  0
 15 16  2  0
 15 20  1  0
 16 17  1  0
 17 18  2  0
 18 19  1  0
 19 20  2  0
  2 21  1  0
  7 22  1  0
  8 23  1  0
  8 24  1  0
  8 25  1  0
 10 26  1  0
 11 27  1  0
 12 28  1  0
 13 29  1  0
 14 30  1  0
 16 31  1  0
 17 32  1  0
 19 33  1  0
 20 34  1  0
 35 36  1  0
 36 37  2  0
 37 38  1  0
 38 39  2  0
 39 40  1  0
 39 41  1  0
 41 42  2  0
 42 43  1  0
 42 36  1  0
 37 44  1  0
 38 45  1  0
 41 46  1  0
 43 47  1  0
 18 35  1  0
M  END
>  <attachment_point>  (440) 
32

>  <score>  (440) 
<NA>

$$$$
4djw
     RDKit          3D

 53 56  0  0  0  0  0  0  0  0999 V2000
   22.4950   11.8750   22.5810 C   0  0  0  0  0  0  0  0  0  0  0  0
   22.5380    9.4930   22.4640 N   0  0  0  0  0  0  0  0  0  0  0  0
   22.3600   13.0630   22.3480 O   0  0  0  0  0  0  0  0  0  0  0  0
   22.3390   10.6680   21.5610 C   0  0  0  0  0  0  0  0  0  0  0  0
   22.7860   11.3350   23.8120 N   0  0  0  0  0  0  0  0  0  0  0  0
   22.7800    9.9140   23.7010 C   0  0  0  0  0  0  0  0  0  0  0  0
   22.9970    9.1110   24.7490 N   0  0  0  0  0  0  0  0  0  0  0  0
   23.0220   12.1410   25.0180 C   0  0  0  0  0  0  0  0  0  0  0  0
   20.9020   10.6270   21.0050 C   0  0  0  0  0  0  0  0  0  0  0  0
   20.2720    9.4140   20.7470 C   0  0  0  0  0  0  0  0  0  0  0  0
   18.9690    9.3760   20.2600 C   0  0  0  0  0  0  0  0  0  0  0  0
   18.2800   10.5440   20.0210 C   0  0  0  0  0  0  0  0  0  0  0  0
   18.8920   11.7530   20.2590 C   0  0  0  0  0  0  0  0  0  0  0  0
   20.1950   11.7970   20.7440 C   0  0  0  0  0  0  0  0  0  0  0  0
   23.4880   10.6920   20.5300 C   0  0  0  0  0  0  0  0  0  0  0  0
   23.2110   10.7890   19.1730 C   0  0  0  0  0  0  0  0  0  0  0  0
   24.2350   10.8650   18.2430 C   0  0  0  0  0  0  0  0  0  0  0  0
   25.5500   10.8410   18.6560 C   0  0  0  0  0  0  0  0  0  0  0  0
   25.8710   10.7460   20.0070 C   0  0  0  0  0  0  0  0  0  0  0  0
   24.8260   10.6610   20.9430 C   0  0  0  0  0  0  0  0  0  0  0  0
    0.0000    0.0000    0.0000 H   0  0  0  0  0  0  0  0  0  0  0  0
    0.0000    0.0000    0.0000 H   0  0  0  0  0  0  0  0  0  0  0  0
    0.0000    0.0000    0.0000 H   0  0  0  0  0  0  0  0  0  0  0  0
    0.0000    0.0000    0.0000 H   0  0  0  0  0  0  0  0  0  0  0  0
    0.0000    0.0000    0.0000 H   0  0  0  0  0  0  0  0  0  0  0  0
    0.0000    0.0000    0.0000 H   0  0  0  0  0  0  0  0  0  0  0  0
    0.0000    0.0000    0.0000 H   0  0  0  0  0  0  0  0  0  0  0  0
    0.0000    0.0000    0.0000 H   0  0  0  0  0  0  0  0  0  0  0  0
    0.0000    0.0000    0.0000 H   0  0  0  0  0  0  0  0  0  0  0  0
    0.0000    0.0000    0.0000 H   0  0  0  0  0  0  0  0  0  0  0  0
    0.0000    0.0000    0.0000 H   0  0  0  0  0  0  0  0  0  0  0  0
    0.0000    0.0000    0.0000 H   0  0  0  0  0  0  0  0  0  0  0  0
    0.0000    0.0000    0.0000 H   0  0  0  0  0  0  0  0  0  0  0  0
    0.0000    0.0000    0.0000 H   0  0  0  0  0  0  0  0  0  0  0  0
   12.4169    5.2686    9.0665 N   0  0  0  0  0  0  0  0  0  0  0  0
   12.7344    5.7964    7.7556 C   0  0  0  0  0  0  0  0  0  0  0  0
   11.3072    5.9782    9.6764 C   0  0  0  0  0  0  0  0  0  0  0  0
   10.0268    5.6692    9.0335 C   0  0  0  0  0  0  0  0  0  0  0  0
    9.6151    6.4502    7.9746 C   0  0  0  0  0  0  0  0  0  0  0  0
    8.4203    6.2372    7.3013 C   0  0  0  0  0  0  0  0  0  0  0  0
    7.6290    5.1921    7.7302 C   0  0  0  0  0  0  0  0  0  0  0  0
    8.0342    4.4068    8.7886 C   0  0  0  0  0  0  0  0  0  0  0  0
    9.2223    4.6234    9.4534 C   0  0  0  0  0  0  0  0  0  0  0  0
   12.5711    6.8877    7.6734 H   0  0  0  0  0  0  0  0  0  0  0  0
   13.8006    5.6035    7.4832 H   0  0  0  0  0  0  0  0  0  0  0  0
   12.1016    5.2691    7.0377 H   0  0  0  0  0  0  0  0  0  0  0  0
   11.2220    5.7872   10.7494 H   0  0  0  0  0  0  0  0  0  0  0  0
   11.5074    7.0657    9.5608 H   0  0  0  0  0  0  0  0  0  0  0  0
   10.2078    7.2879    7.6005 H   0  0  0  0  0  0  0  0  0  0  0  0
    8.1211    6.8737    6.4651 H   0  0  0  0  0  0  0  0  0  0  0  0
    6.6948    4.9911    7.2370 H   0  0  0  0  0  0  0  0  0  0  0  0
    7.4182    3.5796    9.1358 H   0  0  0  0  0  0  0  0  0  0  0  0
    9.5391    3.9987   10.2911 H   0  0  0  0  0  0  0  0  0  0  0  0
  1  3  2  0
  1  4  1  0
  1  5  1  0
  2  4  1  0
  2  6  1  0
  4  9  1  0
  4 15  1  0
  5  6  1  0
  5  8  1  0
  6  7  2  3
  9 10  2  0
  9 14  1  0
 10 11  1  0
 11 12  2  0
 12 13  1  0
 13 14  2  0
 15 16  2  0
 15 20  1  0
 16 17  1  0
 17 18  2  0
 18 19  1  0
 19 20  2  0
  2 21  1  0
  7 22  1  0
  8 23  1  0
  8 24  1  0
  8 25  1  0
 10 26  1  0
 11 27  1  0
 12 28  1  0
 13 29  1  0
 14 30  1  0
 16 31  1  0
 17 32  1  0
 19 33  1  0
 20 34  1  0
 35 36  1  0
 35 37  1  0
 37 38  1  0
 38 39  2  0
 39 40  1  0
 40 41  2  0
 41 42  1  0
 42 43  2  0
 43 38  1  0
 36 44  1  0
 36 45  1  0
 36 46  1  0
 37 47  1  0
 37 48  1  0
 39 49  1  0
 40 50  1  0
 41 51  1  0
 42 52  1  0
 43 53  1  0
 18 35  1  0
M  END
>  <attachment_point>  (441) 
32

>  <score>  (441) 
<NA>

$$$$
4djw
     RDKit          3D

 45 48  0  0  0  0  0  0  0  0999 V2000
   22.4950   11.8750   22.5810 C   0  0  0  0  0  0  0  0  0  0  0  0
   22.5380    9.4930   22.4640 N   0  0  0  0  0  0  0  0  0  0  0  0
   22.3600   13.0630   22.3480 O   0  0  0  0  0  0  0  0  0  0  0  0
   22.3390   10.6680   21.5610 C   0  0  0  0  0  0  0  0  0  0  0  0
   22.7860   11.3350   23.8120 N   0  0  0  0  0  0  0  0  0  0  0  0
   22.7800    9.9140   23.7010 C   0  0  0  0  0  0  0  0  0  0  0  0
   22.9970    9.1110   24.7490 N   0  0  0  0  0  0  0  0  0  0  0  0
   23.0220   12.1410   25.0180 C   0  0  0  0  0  0  0  0  0  0  0  0
   20.9020   10.6270   21.0050 C   0  0  0  0  0  0  0  0  0  0  0  0
   20.2720    9.4140   20.7470 C   0  0  0  0  0  0  0  0  0  0  0  0
   18.9690    9.3760   20.2600 C   0  0  0  0  0  0  0  0  0  0  0  0
   18.2800   10.5440   20.0210 C   0  0  0  0  0  0  0  0  0  0  0  0
   18.8920   11.7530   20.2590 C   0  0  0  0  0  0  0  0  0  0  0  0
   20.1950   11.7970   20.7440 C   0  0  0  0  0  0  0  0  0  0  0  0
   23.4880   10.6920   20.5300 C   0  0  0  0  0  0  0  0  0  0  0  0
   23.2110   10.7890   19.1730 C   0  0  0  0  0  0  0  0  0  0  0  0
   24.2350   10.8650   18.2430 C   0  0  0  0  0  0  0  0  0  0  0  0
   25.5500   10.8410   18.6560 C   0  0  0  0  0  0  0  0  0  0  0  0
   25.8710   10.7460   20.0070 C   0  0  0  0  0  0  0  0  0  0  0  0
   24.8260   10.6610   20.9430 C   0  0  0  0  0  0  0  0  0  0  0  0
    0.0000    0.0000    0.0000 H   0  0  0  0  0  0  0  0  0  0  0  0
    0.0000    0.0000    0.0000 H   0  0  0  0  0  0  0  0  0  0  0  0
    0.0000    0.0000    0.0000 H   0  0  0  0  0  0  0  0  0  0  0  0
    0.0000    0.0000    0.0000 H   0  0  0  0  0  0  0  0  0  0  0  0
    0.0000    0.0000    0.0000 H   0  0  0  0  0  0  0  0  0  0  0  0
    0.0000    0.0000    0.0000 H   0  0  0  0  0  0  0  0  0  0  0  0
    0.0000    0.0000    0.0000 H   0  0  0  0  0  0  0  0  0  0  0  0
    0.0000    0.0000    0.0000 H   0  0  0  0  0  0  0  0  0  0  0  0
    0.0000    0.0000    0.0000 H   0  0  0  0  0  0  0  0  0  0  0  0
    0.0000    0.0000    0.0000 H   0  0  0  0  0  0  0  0  0  0  0  0
    0.0000    0.0000    0.0000 H   0  0  0  0  0  0  0  0  0  0  0  0
    0.0000    0.0000    0.0000 H   0  0  0  0  0  0  0  0  0  0  0  0
    0.0000    0.0000    0.0000 H   0  0  0  0  0  0  0  0  0  0  0  0
    0.0000    0.0000    0.0000 H   0  0  0  0  0  0  0  0  0  0  0  0
   12.3970    5.2601    9.0520 C   0  0  0  0  0  0  0  0  0  0  0  0
   11.9819    3.9780    9.2215 C   0  0  0  0  0  0  0  0  0  0  0  0
   10.9335    3.5178    8.4625 N   0  0  0  0  0  0  0  0  0  0  0  0
   10.3415    4.3292    7.5763 C   0  0  0  0  0  0  0  0  0  0  0  0
    9.2470    3.8101    6.8007 N   0  0  0  0  0  0  0  0  0  0  0  0
   10.7822    5.6192    7.4271 C   0  0  0  0  0  0  0  0  0  0  0  0
   11.8346    6.0665    8.1950 N   0  0  0  0  0  0  0  0  0  0  0  0
   12.4771    3.3463    9.9426 H   0  0  0  0  0  0  0  0  0  0  0  0
    9.4772    3.1654    6.0196 H   0  0  0  0  0  0  0  0  0  0  0  0
    8.2584    4.0789    7.0241 H   0  0  0  0  0  0  0  0  0  0  0  0
   10.3193    6.2822    6.7219 H   0  0  0  0  0  0  0  0  0  0  0  0
  1  3  2  0
  1  4  1  0
  1  5  1  0
  2  4  1  0
  2  6  1  0
  4  9  1  0
  4 15  1  0
  5  6  1  0
  5  8  1  0
  6  7  2  3
  9 10  2  0
  9 14  1  0
 10 11  1  0
 11 12  2  0
 12 13  1  0
 13 14  2  0
 15 16  2  0
 15 20  1  0
 16 17  1  0
 17 18  2  0
 18 19  1  0
 19 20  2  0
  2 21  1  0
  7 22  1  0
  8 23  1  0
  8 24  1  0
  8 25  1  0
 10 26  1  0
 11 27  1  0
 12 28  1  0
 13 29  1  0
 14 30  1  0
 16 31  1  0
 17 32  1  0
 19 33  1  0
 20 34  1  0
 35 36  2  0
 36 37  1  0
 37 38  2  0
 38 39  1  0
 38 40  1  0
 40 41  2  0
 41 35  1  0
 36 42  1  0
 39 43  1  0
 39 44  1  0
 40 45  1  0
 18 35  1  0
M  END
>  <attachment_point>  (442) 
32

>  <score>  (442) 
<NA>

$$$$
4djw
     RDKit          3D

 43 45  0  0  0  0  0  0  0  0999 V2000
   22.4950   11.8750   22.5810 C   0  0  0  0  0  0  0  0  0  0  0  0
   22.5380    9.4930   22.4640 N   0  0  0  0  0  0  0  0  0  0  0  0
   22.3600   13.0630   22.3480 O   0  0  0  0  0  0  0  0  0  0  0  0
   22.3390   10.6680   21.5610 C   0  0  0  0  0  0  0  0  0  0  0  0
   22.7860   11.3350   23.8120 N   0  0  0  0  0  0  0  0  0  0  0  0
   22.7800    9.9140   23.7010 C   0  0  0  0  0  0  0  0  0  0  0  0
   22.9970    9.1110   24.7490 N   0  0  0  0  0  0  0  0  0  0  0  0
   23.0220   12.1410   25.0180 C   0  0  0  0  0  0  0  0  0  0  0  0
   20.9020   10.6270   21.0050 C   0  0  0  0  0  0  0  0  0  0  0  0
   20.2720    9.4140   20.7470 C   0  0  0  0  0  0  0  0  0  0  0  0
   18.9690    9.3760   20.2600 C   0  0  0  0  0  0  0  0  0  0  0  0
   18.2800   10.5440   20.0210 C   0  0  0  0  0  0  0  0  0  0  0  0
   18.8920   11.7530   20.2590 C   0  0  0  0  0  0  0  0  0  0  0  0
   20.1950   11.7970   20.7440 C   0  0  0  0  0  0  0  0  0  0  0  0
   23.4880   10.6920   20.5300 C   0  0  0  0  0  0  0  0  0  0  0  0
   23.2110   10.7890   19.1730 C   0  0  0  0  0  0  0  0  0  0  0  0
   24.2350   10.8650   18.2430 C   0  0  0  0  0  0  0  0  0  0  0  0
   25.5500   10.8410   18.6560 C   0  0  0  0  0  0  0  0  0  0  0  0
   25.8710   10.7460   20.0070 C   0  0  0  0  0  0  0  0  0  0  0  0
   24.8260   10.6610   20.9430 C   0  0  0  0  0  0  0  0  0  0  0  0
    0.0000    0.0000    0.0000 H   0  0  0  0  0  0  0  0  0  0  0  0
    0.0000    0.0000    0.0000 H   0  0  0  0  0  0  0  0  0  0  0  0
    0.0000    0.0000    0.0000 H   0  0  0  0  0  0  0  0  0  0  0  0
    0.0000    0.0000    0.0000 H   0  0  0  0  0  0  0  0  0  0  0  0
    0.0000    0.0000    0.0000 H   0  0  0  0  0  0  0  0  0  0  0  0
    0.0000    0.0000    0.0000 H   0  0  0  0  0  0  0  0  0  0  0  0
    0.0000    0.0000    0.0000 H   0  0  0  0  0  0  0  0  0  0  0  0
    0.0000    0.0000    0.0000 H   0  0  0  0  0  0  0  0  0  0  0  0
    0.0000    0.0000    0.0000 H   0  0  0  0  0  0  0  0  0  0  0  0
    0.0000    0.0000    0.0000 H   0  0  0  0  0  0  0  0  0  0  0  0
    0.0000    0.0000    0.0000 H   0  0  0  0  0  0  0  0  0  0  0  0
    0.0000    0.0000    0.0000 H   0  0  0  0  0  0  0  0  0  0  0  0
    0.0000    0.0000    0.0000 H   0  0  0  0  0  0  0  0  0  0  0  0
    0.0000    0.0000    0.0000 H   0  0  0  0  0  0  0  0  0  0  0  0
   12.3304    5.2318    9.0033 C   0  0  2  0  0  0  0  0  0  0  0  0
   12.6935    3.8210    9.2564 C   0  0  0  0  0  0  0  0  0  0  0  0
   12.7323    5.8302    7.8180 N   0  0  0  0  0  0  0  0  0  0  0  0
   11.6387    5.7091    9.6595 H   0  0  0  0  0  0  0  0  0  0  0  0
   12.5206    3.5840   10.3215 H   0  0  0  0  0  0  0  0  0  0  0  0
   13.7810    3.5836    9.0762 H   0  0  0  0  0  0  0  0  0  0  0  0
   12.1271    3.1784    8.5949 H   0  0  0  0  0  0  0  0  0  0  0  0
   13.7068    5.5314    7.5355 H   0  0  0  0  0  0  0  0  0  0  0  0
   12.7457    6.8863    7.9390 H   0  0  0  0  0  0  0  0  0  0  0  0
  1  3  2  0
  1  4  1  0
  1  5  1  0
  2  4  1  0
  2  6  1  0
  4  9  1  0
  4 15  1  0
  5  6  1  0
  5  8  1  0
  6  7  2  3
  9 10  2  0
  9 14  1  0
 10 11  1  0
 11 12  2  0
 12 13  1  0
 13 14  2  0
 15 16  2  0
 15 20  1  0
 16 17  1  0
 17 18  2  0
 18 19  1  0
 19 20  2  0
  2 21  1  0
  7 22  1  0
  8 23  1  0
  8 24  1  0
  8 25  1  0
 10 26  1  0
 11 27  1  0
 12 28  1  0
 13 29  1  0
 14 30  1  0
 16 31  1  0
 17 32  1  0
 19 33  1  0
 20 34  1  0
 35 36  1  0
 35 37  1  0
 35 38  1  6
 36 39  1  0
 36 40  1  0
 36 41  1  0
 37 42  1  0
 37 43  1  0
 18 35  1  0
M  END
>  <attachment_point>  (443) 
32

>  <score>  (443) 
<NA>

$$$$
4djw
     RDKit          3D

 47 50  0  0  0  0  0  0  0  0999 V2000
   22.4950   11.8750   22.5810 C   0  0  0  0  0  0  0  0  0  0  0  0
   22.5380    9.4930   22.4640 N   0  0  0  0  0  0  0  0  0  0  0  0
   22.3600   13.0630   22.3480 O   0  0  0  0  0  0  0  0  0  0  0  0
   22.3390   10.6680   21.5610 C   0  0  0  0  0  0  0  0  0  0  0  0
   22.7860   11.3350   23.8120 N   0  0  0  0  0  0  0  0  0  0  0  0
   22.7800    9.9140   23.7010 C   0  0  0  0  0  0  0  0  0  0  0  0
   22.9970    9.1110   24.7490 N   0  0  0  0  0  0  0  0  0  0  0  0
   23.0220   12.1410   25.0180 C   0  0  0  0  0  0  0  0  0  0  0  0
   20.9020   10.6270   21.0050 C   0  0  0  0  0  0  0  0  0  0  0  0
   20.2720    9.4140   20.7470 C   0  0  0  0  0  0  0  0  0  0  0  0
   18.9690    9.3760   20.2600 C   0  0  0  0  0  0  0  0  0  0  0  0
   18.2800   10.5440   20.0210 C   0  0  0  0  0  0  0  0  0  0  0  0
   18.8920   11.7530   20.2590 C   0  0  0  0  0  0  0  0  0  0  0  0
   20.1950   11.7970   20.7440 C   0  0  0  0  0  0  0  0  0  0  0  0
   23.4880   10.6920   20.5300 C   0  0  0  0  0  0  0  0  0  0  0  0
   23.2110   10.7890   19.1730 C   0  0  0  0  0  0  0  0  0  0  0  0
   24.2350   10.8650   18.2430 C   0  0  0  0  0  0  0  0  0  0  0  0
   25.5500   10.8410   18.6560 C   0  0  0  0  0  0  0  0  0  0  0  0
   25.8710   10.7460   20.0070 C   0  0  0  0  0  0  0  0  0  0  0  0
   24.8260   10.6610   20.9430 C   0  0  0  0  0  0  0  0  0  0  0  0
    0.0000    0.0000    0.0000 H   0  0  0  0  0  0  0  0  0  0  0  0
    0.0000    0.0000    0.0000 H   0  0  0  0  0  0  0  0  0  0  0  0
    0.0000    0.0000    0.0000 H   0  0  0  0  0  0  0  0  0  0  0  0
    0.0000    0.0000    0.0000 H   0  0  0  0  0  0  0  0  0  0  0  0
    0.0000    0.0000    0.0000 H   0  0  0  0  0  0  0  0  0  0  0  0
    0.0000    0.0000    0.0000 H   0  0  0  0  0  0  0  0  0  0  0  0
    0.0000    0.0000    0.0000 H   0  0  0  0  0  0  0  0  0  0  0  0
    0.0000    0.0000    0.0000 H   0  0  0  0  0  0  0  0  0  0  0  0
    0.0000    0.0000    0.0000 H   0  0  0  0  0  0  0  0  0  0  0  0
    0.0000    0.0000    0.0000 H   0  0  0  0  0  0  0  0  0  0  0  0
    0.0000    0.0000    0.0000 H   0  0  0  0  0  0  0  0  0  0  0  0
    0.0000    0.0000    0.0000 H   0  0  0  0  0  0  0  0  0  0  0  0
    0.0000    0.0000    0.0000 H   0  0  0  0  0  0  0  0  0  0  0  0
    0.0000    0.0000    0.0000 H   0  0  0  0  0  0  0  0  0  0  0  0
   12.4819    5.2961    9.1140 N   0  0  0  0  0  0  0  0  0  0  0  0
   11.3393    5.0422    9.9431 C   0  0  0  0  0  0  0  0  0  0  0  0
   10.9221    6.3064   10.6504 C   0  0  0  0  0  0  0  0  0  0  0  0
   11.3372    6.7725   11.8687 C   0  0  0  0  0  0  0  0  0  0  0  0
   10.8261    7.9280   12.2970 C   0  0  0  0  0  0  0  0  0  0  0  0
    9.9237    8.5597   11.4825 C   0  0  0  0  0  0  0  0  0  0  0  0
    9.8232    7.5053   10.1379 S   0  0  0  0  0  0  0  0  0  0  0  0
   12.6401    4.6055    8.3766 H   0  0  0  0  0  0  0  0  0  0  0  0
   10.4916    4.7483    9.3099 H   0  0  0  0  0  0  0  0  0  0  0  0
   11.6298    4.2721   10.6911 H   0  0  0  0  0  0  0  0  0  0  0  0
   12.0735    6.1773   12.4442 H   0  0  0  0  0  0  0  0  0  0  0  0
   11.0889    8.3994   13.2645 H   0  0  0  0  0  0  0  0  0  0  0  0
    9.3979    9.5153   11.6631 H   0  0  0  0  0  0  0  0  0  0  0  0
  1  3  2  0
  1  4  1  0
  1  5  1  0
  2  4  1  0
  2  6  1  0
  4  9  1  0
  4 15  1  0
  5  6  1  0
  5  8  1  0
  6  7  2  3
  9 10  2  0
  9 14  1  0
 10 11  1  0
 11 12  2  0
 12 13  1  0
 13 14  2  0
 15 16  2  0
 15 20  1  0
 16 17  1  0
 17 18  2  0
 18 19  1  0
 19 20  2  0
  2 21  1  0
  7 22  1  0
  8 23  1  0
  8 24  1  0
  8 25  1  0
 10 26  1  0
 11 27  1  0
 12 28  1  0
 13 29  1  0
 14 30  1  0
 16 31  1  0
 17 32  1  0
 19 33  1  0
 20 34  1  0
 35 36  1  0
 36 37  1  0
 37 38  2  0
 38 39  1  0
 39 40  2  0
 40 41  1  0
 41 37  1  0
 35 42  1  0
 36 43  1  0
 36 44  1  0
 38 45  1  0
 39 46  1  0
 40 47  1  0
 18 35  1  0
M  END
>  <attachment_point>  (444) 
32

>  <score>  (444) 
<NA>

$$$$
4djw
     RDKit          3D

 56 59  0  0  0  0  0  0  0  0999 V2000
   22.4950   11.8750   22.5810 C   0  0  0  0  0  0  0  0  0  0  0  0
   22.5380    9.4930   22.4640 N   0  0  0  0  0  0  0  0  0  0  0  0
   22.3600   13.0630   22.3480 O   0  0  0  0  0  0  0  0  0  0  0  0
   22.3390   10.6680   21.5610 C   0  0  0  0  0  0  0  0  0  0  0  0
   22.7860   11.3350   23.8120 N   0  0  0  0  0  0  0  0  0  0  0  0
   22.7800    9.9140   23.7010 C   0  0  0  0  0  0  0  0  0  0  0  0
   22.9970    9.1110   24.7490 N   0  0  0  0  0  0  0  0  0  0  0  0
   23.0220   12.1410   25.0180 C   0  0  0  0  0  0  0  0  0  0  0  0
   20.9020   10.6270   21.0050 C   0  0  0  0  0  0  0  0  0  0  0  0
   20.2720    9.4140   20.7470 C   0  0  0  0  0  0  0  0  0  0  0  0
   18.9690    9.3760   20.2600 C   0  0  0  0  0  0  0  0  0  0  0  0
   18.2800   10.5440   20.0210 C   0  0  0  0  0  0  0  0  0  0  0  0
   18.8920   11.7530   20.2590 C   0  0  0  0  0  0  0  0  0  0  0  0
   20.1950   11.7970   20.7440 C   0  0  0  0  0  0  0  0  0  0  0  0
   23.4880   10.6920   20.5300 C   0  0  0  0  0  0  0  0  0  0  0  0
   23.2110   10.7890   19.1730 C   0  0  0  0  0  0  0  0  0  0  0  0
   24.2350   10.8650   18.2430 C   0  0  0  0  0  0  0  0  0  0  0  0
   25.5500   10.8410   18.6560 C   0  0  0  0  0  0  0  0  0  0  0  0
   25.8710   10.7460   20.0070 C   0  0  0  0  0  0  0  0  0  0  0  0
   24.8260   10.6610   20.9430 C   0  0  0  0  0  0  0  0  0  0  0  0
    0.0000    0.0000    0.0000 H   0  0  0  0  0  0  0  0  0  0  0  0
    0.0000    0.0000    0.0000 H   0  0  0  0  0  0  0  0  0  0  0  0
    0.0000    0.0000    0.0000 H   0  0  0  0  0  0  0  0  0  0  0  0
    0.0000    0.0000    0.0000 H   0  0  0  0  0  0  0  0  0  0  0  0
    0.0000    0.0000    0.0000 H   0  0  0  0  0  0  0  0  0  0  0  0
    0.0000    0.0000    0.0000 H   0  0  0  0  0  0  0  0  0  0  0  0
    0.0000    0.0000    0.0000 H   0  0  0  0  0  0  0  0  0  0  0  0
    0.0000    0.0000    0.0000 H   0  0  0  0  0  0  0  0  0  0  0  0
    0.0000    0.0000    0.0000 H   0  0  0  0  0  0  0  0  0  0  0  0
    0.0000    0.0000    0.0000 H   0  0  0  0  0  0  0  0  0  0  0  0
    0.0000    0.0000    0.0000 H   0  0  0  0  0  0  0  0  0  0  0  0
    0.0000    0.0000    0.0000 H   0  0  0  0  0  0  0  0  0  0  0  0
    0.0000    0.0000    0.0000 H   0  0  0  0  0  0  0  0  0  0  0  0
    0.0000    0.0000    0.0000 H   0  0  0  0  0  0  0  0  0  0  0  0
   12.3907    5.2574    9.0474 N   0  0  0  0  0  0  0  0  0  0  0  0
   11.4093    5.4083   10.1100 C   0  0  0  0  0  0  0  0  0  0  0  0
   11.7183    4.5747   11.3022 C   0  0  0  0  0  0  0  0  0  0  0  0
   11.7818    3.1605   11.0796 N   0  0  0  0  0  0  0  0  0  0  0  0
   12.1439    2.5470   12.3294 C   0  0  0  0  0  0  0  0  0  0  0  0
   11.7230    1.1548   12.5265 C   0  0  0  0  0  0  0  0  0  0  0  0
   10.5456    0.7864   11.8967 O   0  0  0  0  0  0  0  0  0  0  0  0
    9.8108    1.9154   11.5456 C   0  0  0  0  0  0  0  0  0  0  0  0
   10.6459    2.5899   10.4446 C   0  0  0  0  0  0  0  0  0  0  0  0
   12.3122    6.1148    8.4401 H   0  0  0  0  0  0  0  0  0  0  0  0
   11.3777    6.4822   10.4639 H   0  0  0  0  0  0  0  0  0  0  0  0
   10.4112    5.2438    9.6668 H   0  0  0  0  0  0  0  0  0  0  0  0
   10.9319    4.8068   12.0788 H   0  0  0  0  0  0  0  0  0  0  0  0
   12.6651    4.9194   11.7659 H   0  0  0  0  0  0  0  0  0  0  0  0
   13.2768    2.5644   12.3531 H   0  0  0  0  0  0  0  0  0  0  0  0
   11.8538    3.1864   13.1930 H   0  0  0  0  0  0  0  0  0  0  0  0
   12.5137    0.4176   12.2277 H   0  0  0  0  0  0  0  0  0  0  0  0
   11.5580    0.9581   13.6201 H   0  0  0  0  0  0  0  0  0  0  0  0
    9.6987    2.5724   12.4075 H   0  0  0  0  0  0  0  0  0  0  0  0
    8.8246    1.6195   11.1817 H   0  0  0  0  0  0  0  0  0  0  0  0
   10.0097    3.2870    9.8967 H   0  0  0  0  0  0  0  0  0  0  0  0
   11.0254    1.7830    9.7499 H   0  0  0  0  0  0  0  0  0  0  0  0
  1  3  2  0
  1  4  1  0
  1  5  1  0
  2  4  1  0
  2  6  1  0
  4  9  1  0
  4 15  1  0
  5  6  1  0
  5  8  1  0
  6  7  2  3
  9 10  2  0
  9 14  1  0
 10 11  1  0
 11 12  2  0
 12 13  1  0
 13 14  2  0
 15 16  2  0
 15 20  1  0
 16 17  1  0
 17 18  2  0
 18 19  1  0
 19 20  2  0
  2 21  1  0
  7 22  1  0
  8 23  1  0
  8 24  1  0
  8 25  1  0
 10 26  1  0
 11 27  1  0
 12 28  1  0
 13 29  1  0
 14 30  1  0
 16 31  1  0
 17 32  1  0
 19 33  1  0
 20 34  1  0
 35 36  1  0
 36 37  1  0
 37 38  1  0
 38 39  1  0
 39 40  1  0
 40 41  1  0
 41 42  1  0
 42 43  1  0
 43 38  1  0
 35 44  1  0
 36 45  1  0
 36 46  1  0
 37 47  1  0
 37 48  1  0
 39 49  1  0
 39 50  1  0
 40 51  1  0
 40 52  1  0
 42 53  1  0
 42 54  1  0
 43 55  1  0
 43 56  1  0
 18 35  1  0
M  END
>  <attachment_point>  (445) 
32

>  <score>  (445) 
<NA>

$$$$
4djw
     RDKit          3D

 50 53  0  0  0  0  0  0  0  0999 V2000
   22.4950   11.8750   22.5810 C   0  0  0  0  0  0  0  0  0  0  0  0
   22.5380    9.4930   22.4640 N   0  0  0  0  0  0  0  0  0  0  0  0
   22.3600   13.0630   22.3480 O   0  0  0  0  0  0  0  0  0  0  0  0
   22.3390   10.6680   21.5610 C   0  0  0  0  0  0  0  0  0  0  0  0
   22.7860   11.3350   23.8120 N   0  0  0  0  0  0  0  0  0  0  0  0
   22.7800    9.9140   23.7010 C   0  0  0  0  0  0  0  0  0  0  0  0
   22.9970    9.1110   24.7490 N   0  0  0  0  0  0  0  0  0  0  0  0
   23.0220   12.1410   25.0180 C   0  0  0  0  0  0  0  0  0  0  0  0
   20.9020   10.6270   21.0050 C   0  0  0  0  0  0  0  0  0  0  0  0
   20.2720    9.4140   20.7470 C   0  0  0  0  0  0  0  0  0  0  0  0
   18.9690    9.3760   20.2600 C   0  0  0  0  0  0  0  0  0  0  0  0
   18.2800   10.5440   20.0210 C   0  0  0  0  0  0  0  0  0  0  0  0
   18.8920   11.7530   20.2590 C   0  0  0  0  0  0  0  0  0  0  0  0
   20.1950   11.7970   20.7440 C   0  0  0  0  0  0  0  0  0  0  0  0
   23.4880   10.6920   20.5300 C   0  0  0  0  0  0  0  0  0  0  0  0
   23.2110   10.7890   19.1730 C   0  0  0  0  0  0  0  0  0  0  0  0
   24.2350   10.8650   18.2430 C   0  0  0  0  0  0  0  0  0  0  0  0
   25.5500   10.8410   18.6560 C   0  0  0  0  0  0  0  0  0  0  0  0
   25.8710   10.7460   20.0070 C   0  0  0  0  0  0  0  0  0  0  0  0
   24.8260   10.6610   20.9430 C   0  0  0  0  0  0  0  0  0  0  0  0
    0.0000    0.0000    0.0000 H   0  0  0  0  0  0  0  0  0  0  0  0
    0.0000    0.0000    0.0000 H   0  0  0  0  0  0  0  0  0  0  0  0
    0.0000    0.0000    0.0000 H   0  0  0  0  0  0  0  0  0  0  0  0
    0.0000    0.0000    0.0000 H   0  0  0  0  0  0  0  0  0  0  0  0
    0.0000    0.0000    0.0000 H   0  0  0  0  0  0  0  0  0  0  0  0
    0.0000    0.0000    0.0000 H   0  0  0  0  0  0  0  0  0  0  0  0
    0.0000    0.0000    0.0000 H   0  0  0  0  0  0  0  0  0  0  0  0
    0.0000    0.0000    0.0000 H   0  0  0  0  0  0  0  0  0  0  0  0
    0.0000    0.0000    0.0000 H   0  0  0  0  0  0  0  0  0  0  0  0
    0.0000    0.0000    0.0000 H   0  0  0  0  0  0  0  0  0  0  0  0
    0.0000    0.0000    0.0000 H   0  0  0  0  0  0  0  0  0  0  0  0
    0.0000    0.0000    0.0000 H   0  0  0  0  0  0  0  0  0  0  0  0
    0.0000    0.0000    0.0000 H   0  0  0  0  0  0  0  0  0  0  0  0
    0.0000    0.0000    0.0000 H   0  0  0  0  0  0  0  0  0  0  0  0
   12.5061    5.3064    9.1316 N   0  0  0  0  0  0  0  0  0  0  0  0
   12.6853    4.5319    7.9378 C   0  0  0  0  0  0  0  0  0  0  0  0
   12.8398    3.0685    8.1610 C   0  0  0  0  0  0  0  0  0  0  0  0
   11.7950    2.4262    9.4334 S   0  0  0  0  0  6  0  0  0  0  0  0
   12.3854    1.1852   10.0116 O   0  0  0  0  0  0  0  0  0  0  0  0
   10.3837    2.1994    8.9279 O   0  0  0  0  0  0  0  0  0  0  0  0
   11.6548    3.7182   10.6788 C   0  0  0  0  0  0  0  0  0  0  0  0
   11.3269    4.9820    9.8702 C   0  0  0  0  0  0  0  0  0  0  0  0
   13.6493    4.8972    7.4735 H   0  0  0  0  0  0  0  0  0  0  0  0
   11.9123    4.7624    7.1502 H   0  0  0  0  0  0  0  0  0  0  0  0
   13.8985    2.8181    8.4645 H   0  0  0  0  0  0  0  0  0  0  0  0
   12.5822    2.5487    7.2010 H   0  0  0  0  0  0  0  0  0  0  0  0
   12.6725    3.8666   11.0986 H   0  0  0  0  0  0  0  0  0  0  0  0
   10.8882    3.4838   11.4136 H   0  0  0  0  0  0  0  0  0  0  0  0
   11.0910    5.7677   10.5936 H   0  0  0  0  0  0  0  0  0  0  0  0
   10.4408    4.7680    9.2309 H   0  0  0  0  0  0  0  0  0  0  0  0
  1  3  2  0
  1  4  1  0
  1  5  1  0
  2  4  1  0
  2  6  1  0
  4  9  1  0
  4 15  1  0
  5  6  1  0
  5  8  1  0
  6  7  2  3
  9 10  2  0
  9 14  1  0
 10 11  1  0
 11 12  2  0
 12 13  1  0
 13 14  2  0
 15 16  2  0
 15 20  1  0
 16 17  1  0
 17 18  2  0
 18 19  1  0
 19 20  2  0
  2 21  1  0
  7 22  1  0
  8 23  1  0
  8 24  1  0
  8 25  1  0
 10 26  1  0
 11 27  1  0
 12 28  1  0
 13 29  1  0
 14 30  1  0
 16 31  1  0
 17 32  1  0
 19 33  1  0
 20 34  1  0
 35 36  1  0
 36 37  1  0
 37 38  1  0
 38 39  2  0
 38 40  2  0
 38 41  1  0
 41 42  1  0
 42 35  1  0
 36 43  1  0
 36 44  1  0
 37 45  1  0
 37 46  1  0
 41 47  1  0
 41 48  1  0
 42 49  1  0
 42 50  1  0
 18 35  1  0
M  END
>  <attachment_point>  (446) 
32

>  <score>  (446) 
<NA>

$$$$
4djw
     RDKit          3D

 54 57  0  0  0  0  0  0  0  0999 V2000
   22.4950   11.8750   22.5810 C   0  0  0  0  0  0  0  0  0  0  0  0
   22.5380    9.4930   22.4640 N   0  0  0  0  0  0  0  0  0  0  0  0
   22.3600   13.0630   22.3480 O   0  0  0  0  0  0  0  0  0  0  0  0
   22.3390   10.6680   21.5610 C   0  0  0  0  0  0  0  0  0  0  0  0
   22.7860   11.3350   23.8120 N   0  0  0  0  0  0  0  0  0  0  0  0
   22.7800    9.9140   23.7010 C   0  0  0  0  0  0  0  0  0  0  0  0
   22.9970    9.1110   24.7490 N   0  0  0  0  0  0  0  0  0  0  0  0
   23.0220   12.1410   25.0180 C   0  0  0  0  0  0  0  0  0  0  0  0
   20.9020   10.6270   21.0050 C   0  0  0  0  0  0  0  0  0  0  0  0
   20.2720    9.4140   20.7470 C   0  0  0  0  0  0  0  0  0  0  0  0
   18.9690    9.3760   20.2600 C   0  0  0  0  0  0  0  0  0  0  0  0
   18.2800   10.5440   20.0210 C   0  0  0  0  0  0  0  0  0  0  0  0
   18.8920   11.7530   20.2590 C   0  0  0  0  0  0  0  0  0  0  0  0
   20.1950   11.7970   20.7440 C   0  0  0  0  0  0  0  0  0  0  0  0
   23.4880   10.6920   20.5300 C   0  0  0  0  0  0  0  0  0  0  0  0
   23.2110   10.7890   19.1730 C   0  0  0  0  0  0  0  0  0  0  0  0
   24.2350   10.8650   18.2430 C   0  0  0  0  0  0  0  0  0  0  0  0
   25.5500   10.8410   18.6560 C   0  0  0  0  0  0  0  0  0  0  0  0
   25.8710   10.7460   20.0070 C   0  0  0  0  0  0  0  0  0  0  0  0
   24.8260   10.6610   20.9430 C   0  0  0  0  0  0  0  0  0  0  0  0
    0.0000    0.0000    0.0000 H   0  0  0  0  0  0  0  0  0  0  0  0
    0.0000    0.0000    0.0000 H   0  0  0  0  0  0  0  0  0  0  0  0
    0.0000    0.0000    0.0000 H   0  0  0  0  0  0  0  0  0  0  0  0
    0.0000    0.0000    0.0000 H   0  0  0  0  0  0  0  0  0  0  0  0
    0.0000    0.0000    0.0000 H   0  0  0  0  0  0  0  0  0  0  0  0
    0.0000    0.0000    0.0000 H   0  0  0  0  0  0  0  0  0  0  0  0
    0.0000    0.0000    0.0000 H   0  0  0  0  0  0  0  0  0  0  0  0
    0.0000    0.0000    0.0000 H   0  0  0  0  0  0  0  0  0  0  0  0
    0.0000    0.0000    0.0000 H   0  0  0  0  0  0  0  0  0  0  0  0
    0.0000    0.0000    0.0000 H   0  0  0  0  0  0  0  0  0  0  0  0
    0.0000    0.0000    0.0000 H   0  0  0  0  0  0  0  0  0  0  0  0
    0.0000    0.0000    0.0000 H   0  0  0  0  0  0  0  0  0  0  0  0
    0.0000    0.0000    0.0000 H   0  0  0  0  0  0  0  0  0  0  0  0
    0.0000    0.0000    0.0000 H   0  0  0  0  0  0  0  0  0  0  0  0
   12.4076    5.2646    9.0597 C   0  0  0  0  0  0  0  0  0  0  0  0
   11.1952    5.8694    9.1824 C   0  0  0  0  0  0  0  0  0  0  0  0
   10.1524    5.3824    8.3809 C   0  0  0  0  0  0  0  0  0  0  0  0
   10.3851    4.3273    7.5120 C   0  0  0  0  0  0  0  0  0  0  0  0
    9.3455    3.8365    6.7083 O   0  0  0  0  0  0  0  0  0  0  0  0
    9.6334    2.7649    5.8438 C   0  0  0  0  0  0  0  0  0  0  0  0
    9.4578    3.2179    4.4046 C   0  0  0  0  0  0  0  0  0  0  0  0
    8.7942    1.5446    6.1454 C   0  0  0  0  0  0  0  0  0  0  0  0
   11.6203    3.7974    7.4649 N   0  0  0  0  0  0  0  0  0  0  0  0
   12.6554    4.2340    8.2182 C   0  0  0  0  0  0  0  0  0  0  0  0
   11.0162    6.6835    9.8528 H   0  0  0  0  0  0  0  0  0  0  0  0
    9.1752    5.8366    8.4497 H   0  0  0  0  0  0  0  0  0  0  0  0
   10.6957    2.4827    5.9596 H   0  0  0  0  0  0  0  0  0  0  0  0
   10.3993    3.7246    4.0546 H   0  0  0  0  0  0  0  0  0  0  0  0
    9.3273    2.3422    3.7448 H   0  0  0  0  0  0  0  0  0  0  0  0
    8.6598    3.9738    4.2979 H   0  0  0  0  0  0  0  0  0  0  0  0
    9.4012    0.7349    6.6212 H   0  0  0  0  0  0  0  0  0  0  0  0
    8.3447    1.1138    5.2285 H   0  0  0  0  0  0  0  0  0  0  0  0
    7.9901    1.8231    6.8617 H   0  0  0  0  0  0  0  0  0  0  0  0
   13.6331    3.7807    8.1504 H   0  0  0  0  0  0  0  0  0  0  0  0
  1  3  2  0
  1  4  1  0
  1  5  1  0
  2  4  1  0
  2  6  1  0
  4  9  1  0
  4 15  1  0
  5  6  1  0
  5  8  1  0
  6  7  2  3
  9 10  2  0
  9 14  1  0
 10 11  1  0
 11 12  2  0
 12 13  1  0
 13 14  2  0
 15 16  2  0
 15 20  1  0
 16 17  1  0
 17 18  2  0
 18 19  1  0
 19 20  2  0
  2 21  1  0
  7 22  1  0
  8 23  1  0
  8 24  1  0
  8 25  1  0
 10 26  1  0
 11 27  1  0
 12 28  1  0
 13 29  1  0
 14 30  1  0
 16 31  1  0
 17 32  1  0
 19 33  1  0
 20 34  1  0
 35 36  2  0
 36 37  1  0
 37 38  2  0
 38 39  1  0
 39 40  1  0
 40 41  1  0
 40 42  1  0
 38 43  1  0
 43 44  2  0
 44 35  1  0
 36 45  1  0
 37 46  1  0
 40 47  1  0
 41 48  1  0
 41 49  1  0
 41 50  1  0
 42 51  1  0
 42 52  1  0
 42 53  1  0
 44 54  1  0
 18 35  1  0
M  END
>  <attachment_point>  (447) 
32

>  <score>  (447) 
<NA>

$$$$
4djw
     RDKit          3D

 43 46  0  0  0  0  0  0  0  0999 V2000
   22.4950   11.8750   22.5810 C   0  0  0  0  0  0  0  0  0  0  0  0
   22.5380    9.4930   22.4640 N   0  0  0  0  0  0  0  0  0  0  0  0
   22.3600   13.0630   22.3480 O   0  0  0  0  0  0  0  0  0  0  0  0
   22.3390   10.6680   21.5610 C   0  0  0  0  0  0  0  0  0  0  0  0
   22.7860   11.3350   23.8120 N   0  0  0  0  0  0  0  0  0  0  0  0
   22.7800    9.9140   23.7010 C   0  0  0  0  0  0  0  0  0  0  0  0
   22.9970    9.1110   24.7490 N   0  0  0  0  0  0  0  0  0  0  0  0
   23.0220   12.1410   25.0180 C   0  0  0  0  0  0  0  0  0  0  0  0
   20.9020   10.6270   21.0050 C   0  0  0  0  0  0  0  0  0  0  0  0
   20.2720    9.4140   20.7470 C   0  0  0  0  0  0  0  0  0  0  0  0
   18.9690    9.3760   20.2600 C   0  0  0  0  0  0  0  0  0  0  0  0
   18.2800   10.5440   20.0210 C   0  0  0  0  0  0  0  0  0  0  0  0
   18.8920   11.7530   20.2590 C   0  0  0  0  0  0  0  0  0  0  0  0
   20.1950   11.7970   20.7440 C   0  0  0  0  0  0  0  0  0  0  0  0
   23.4880   10.6920   20.5300 C   0  0  0  0  0  0  0  0  0  0  0  0
   23.2110   10.7890   19.1730 C   0  0  0  0  0  0  0  0  0  0  0  0
   24.2350   10.8650   18.2430 C   0  0  0  0  0  0  0  0  0  0  0  0
   25.5500   10.8410   18.6560 C   0  0  0  0  0  0  0  0  0  0  0  0
   25.8710   10.7460   20.0070 C   0  0  0  0  0  0  0  0  0  0  0  0
   24.8260   10.6610   20.9430 C   0  0  0  0  0  0  0  0  0  0  0  0
    0.0000    0.0000    0.0000 H   0  0  0  0  0  0  0  0  0  0  0  0
    0.0000    0.0000    0.0000 H   0  0  0  0  0  0  0  0  0  0  0  0
    0.0000    0.0000    0.0000 H   0  0  0  0  0  0  0  0  0  0  0  0
    0.0000    0.0000    0.0000 H   0  0  0  0  0  0  0  0  0  0  0  0
    0.0000    0.0000    0.0000 H   0  0  0  0  0  0  0  0  0  0  0  0
    0.0000    0.0000    0.0000 H   0  0  0  0  0  0  0  0  0  0  0  0
    0.0000    0.0000    0.0000 H   0  0  0  0  0  0  0  0  0  0  0  0
    0.0000    0.0000    0.0000 H   0  0  0  0  0  0  0  0  0  0  0  0
    0.0000    0.0000    0.0000 H   0  0  0  0  0  0  0  0  0  0  0  0
    0.0000    0.0000    0.0000 H   0  0  0  0  0  0  0  0  0  0  0  0
    0.0000    0.0000    0.0000 H   0  0  0  0  0  0  0  0  0  0  0  0
    0.0000    0.0000    0.0000 H   0  0  0  0  0  0  0  0  0  0  0  0
    0.0000    0.0000    0.0000 H   0  0  0  0  0  0  0  0  0  0  0  0
    0.0000    0.0000    0.0000 H   0  0  0  0  0  0  0  0  0  0  0  0
   12.4308    5.2744    9.0766 C   0  0  0  0  0  0  0  0  0  0  0  0
   12.6479    4.9310    7.7415 C   0  0  0  0  0  0  0  0  0  0  0  0
   11.6000    4.4857    6.9741 C   0  0  0  0  0  0  0  0  0  0  0  0
   10.3965    4.3998    7.5519 N   0  0  0  0  0  0  0  0  0  0  0  0
   10.1913    4.7276    8.8244 N   0  0  0  0  0  0  0  0  0  0  0  0
   11.1740    5.1679    9.6219 C   0  0  0  0  0  0  0  0  0  0  0  0
   13.6429    5.0192    7.3228 H   0  0  0  0  0  0  0  0  0  0  0  0
   11.7042    4.2093    5.9508 H   0  0  0  0  0  0  0  0  0  0  0  0
   10.9366    5.4143   10.6392 H   0  0  0  0  0  0  0  0  0  0  0  0
  1  3  2  0
  1  4  1  0
  1  5  1  0
  2  4  1  0
  2  6  1  0
  4  9  1  0
  4 15  1  0
  5  6  1  0
  5  8  1  0
  6  7  2  3
  9 10  2  0
  9 14  1  0
 10 11  1  0
 11 12  2  0
 12 13  1  0
 13 14  2  0
 15 16  2  0
 15 20  1  0
 16 17  1  0
 17 18  2  0
 18 19  1  0
 19 20  2  0
  2 21  1  0
  7 22  1  0
  8 23  1  0
  8 24  1  0
  8 25  1  0
 10 26  1  0
 11 27  1  0
 12 28  1  0
 13 29  1  0
 14 30  1  0
 16 31  1  0
 17 32  1  0
 19 33  1  0
 20 34  1  0
 35 36  2  0
 36 37  1  0
 37 38  2  0
 38 39  1  0
 39 40  2  0
 40 35  1  0
 36 41  1  0
 37 42  1  0
 40 43  1  0
 18 35  1  0
M  END
>  <attachment_point>  (448) 
32

>  <score>  (448) 
<NA>

$$$$
4djw
     RDKit          3D

 44 47  0  0  0  0  0  0  0  0999 V2000
   22.4950   11.8750   22.5810 C   0  0  0  0  0  0  0  0  0  0  0  0
   22.5380    9.4930   22.4640 N   0  0  0  0  0  0  0  0  0  0  0  0
   22.3600   13.0630   22.3480 O   0  0  0  0  0  0  0  0  0  0  0  0
   22.3390   10.6680   21.5610 C   0  0  0  0  0  0  0  0  0  0  0  0
   22.7860   11.3350   23.8120 N   0  0  0  0  0  0  0  0  0  0  0  0
   22.7800    9.9140   23.7010 C   0  0  0  0  0  0  0  0  0  0  0  0
   22.9970    9.1110   24.7490 N   0  0  0  0  0  0  0  0  0  0  0  0
   23.0220   12.1410   25.0180 C   0  0  0  0  0  0  0  0  0  0  0  0
   20.9020   10.6270   21.0050 C   0  0  0  0  0  0  0  0  0  0  0  0
   20.2720    9.4140   20.7470 C   0  0  0  0  0  0  0  0  0  0  0  0
   18.9690    9.3760   20.2600 C   0  0  0  0  0  0  0  0  0  0  0  0
   18.2800   10.5440   20.0210 C   0  0  0  0  0  0  0  0  0  0  0  0
   18.8920   11.7530   20.2590 C   0  0  0  0  0  0  0  0  0  0  0  0
   20.1950   11.7970   20.7440 C   0  0  0  0  0  0  0  0  0  0  0  0
   23.4880   10.6920   20.5300 C   0  0  0  0  0  0  0  0  0  0  0  0
   23.2110   10.7890   19.1730 C   0  0  0  0  0  0  0  0  0  0  0  0
   24.2350   10.8650   18.2430 C   0  0  0  0  0  0  0  0  0  0  0  0
   25.5500   10.8410   18.6560 C   0  0  0  0  0  0  0  0  0  0  0  0
   25.8710   10.7460   20.0070 C   0  0  0  0  0  0  0  0  0  0  0  0
   24.8260   10.6610   20.9430 C   0  0  0  0  0  0  0  0  0  0  0  0
    0.0000    0.0000    0.0000 H   0  0  0  0  0  0  0  0  0  0  0  0
    0.0000    0.0000    0.0000 H   0  0  0  0  0  0  0  0  0  0  0  0
    0.0000    0.0000    0.0000 H   0  0  0  0  0  0  0  0  0  0  0  0
    0.0000    0.0000    0.0000 H   0  0  0  0  0  0  0  0  0  0  0  0
    0.0000    0.0000    0.0000 H   0  0  0  0  0  0  0  0  0  0  0  0
    0.0000    0.0000    0.0000 H   0  0  0  0  0  0  0  0  0  0  0  0
    0.0000    0.0000    0.0000 H   0  0  0  0  0  0  0  0  0  0  0  0
    0.0000    0.0000    0.0000 H   0  0  0  0  0  0  0  0  0  0  0  0
    0.0000    0.0000    0.0000 H   0  0  0  0  0  0  0  0  0  0  0  0
    0.0000    0.0000    0.0000 H   0  0  0  0  0  0  0  0  0  0  0  0
    0.0000    0.0000    0.0000 H   0  0  0  0  0  0  0  0  0  0  0  0
    0.0000    0.0000    0.0000 H   0  0  0  0  0  0  0  0  0  0  0  0
    0.0000    0.0000    0.0000 H   0  0  0  0  0  0  0  0  0  0  0  0
    0.0000    0.0000    0.0000 H   0  0  0  0  0  0  0  0  0  0  0  0
   12.4409    5.2787    9.0840 C   0  0  0  0  0  0  0  0  0  0  0  0
   11.5434    6.2212    8.6236 C   0  0  0  0  0  0  0  0  0  0  0  0
   10.5026    5.7367    7.8574 C   0  0  0  0  0  0  0  0  0  0  0  0
   10.4015    4.3741    7.5895 C   0  0  0  0  0  0  0  0  0  0  0  0
    9.3759    3.8960    6.8344 F   0  0  0  0  0  0  0  0  0  0  0  0
   11.3173    3.4578    8.0660 C   0  0  0  0  0  0  0  0  0  0  0  0
   12.3197    3.9652    8.8099 N   0  0  0  0  0  0  0  0  0  0  0  0
   11.6590    7.2717    8.8553 H   0  0  0  0  0  0  0  0  0  0  0  0
    9.7733    6.4535    7.4762 H   0  0  0  0  0  0  0  0  0  0  0  0
   11.2424    2.3978    7.8601 H   0  0  0  0  0  0  0  0  0  0  0  0
  1  3  2  0
  1  4  1  0
  1  5  1  0
  2  4  1  0
  2  6  1  0
  4  9  1  0
  4 15  1  0
  5  6  1  0
  5  8  1  0
  6  7  2  3
  9 10  2  0
  9 14  1  0
 10 11  1  0
 11 12  2  0
 12 13  1  0
 13 14  2  0
 15 16  2  0
 15 20  1  0
 16 17  1  0
 17 18  2  0
 18 19  1  0
 19 20  2  0
  2 21  1  0
  7 22  1  0
  8 23  1  0
  8 24  1  0
  8 25  1  0
 10 26  1  0
 11 27  1  0
 12 28  1  0
 13 29  1  0
 14 30  1  0
 16 31  1  0
 17 32  1  0
 19 33  1  0
 20 34  1  0
 35 36  2  0
 36 37  1  0
 37 38  2  0
 38 39  1  0
 38 40  1  0
 40 41  2  0
 41 35  1  0
 36 42  1  0
 37 43  1  0
 40 44  1  0
 18 35  1  0
M  END
>  <attachment_point>  (449) 
32

>  <score>  (449) 
<NA>

$$$$
4djw
     RDKit          3D

 50 54  0  0  0  0  0  0  0  0999 V2000
   22.4950   11.8750   22.5810 C   0  0  0  0  0  0  0  0  0  0  0  0
   22.5380    9.4930   22.4640 N   0  0  0  0  0  0  0  0  0  0  0  0
   22.3600   13.0630   22.3480 O   0  0  0  0  0  0  0  0  0  0  0  0
   22.3390   10.6680   21.5610 C   0  0  0  0  0  0  0  0  0  0  0  0
   22.7860   11.3350   23.8120 N   0  0  0  0  0  0  0  0  0  0  0  0
   22.7800    9.9140   23.7010 C   0  0  0  0  0  0  0  0  0  0  0  0
   22.9970    9.1110   24.7490 N   0  0  0  0  0  0  0  0  0  0  0  0
   23.0220   12.1410   25.0180 C   0  0  0  0  0  0  0  0  0  0  0  0
   20.9020   10.6270   21.0050 C   0  0  0  0  0  0  0  0  0  0  0  0
   20.2720    9.4140   20.7470 C   0  0  0  0  0  0  0  0  0  0  0  0
   18.9690    9.3760   20.2600 C   0  0  0  0  0  0  0  0  0  0  0  0
   18.2800   10.5440   20.0210 C   0  0  0  0  0  0  0  0  0  0  0  0
   18.8920   11.7530   20.2590 C   0  0  0  0  0  0  0  0  0  0  0  0
   20.1950   11.7970   20.7440 C   0  0  0  0  0  0  0  0  0  0  0  0
   23.4880   10.6920   20.5300 C   0  0  0  0  0  0  0  0  0  0  0  0
   23.2110   10.7890   19.1730 C   0  0  0  0  0  0  0  0  0  0  0  0
   24.2350   10.8650   18.2430 C   0  0  0  0  0  0  0  0  0  0  0  0
   25.5500   10.8410   18.6560 C   0  0  0  0  0  0  0  0  0  0  0  0
   25.8710   10.7460   20.0070 C   0  0  0  0  0  0  0  0  0  0  0  0
   24.8260   10.6610   20.9430 C   0  0  0  0  0  0  0  0  0  0  0  0
    0.0000    0.0000    0.0000 H   0  0  0  0  0  0  0  0  0  0  0  0
    0.0000    0.0000    0.0000 H   0  0  0  0  0  0  0  0  0  0  0  0
    0.0000    0.0000    0.0000 H   0  0  0  0  0  0  0  0  0  0  0  0
    0.0000    0.0000    0.0000 H   0  0  0  0  0  0  0  0  0  0  0  0
    0.0000    0.0000    0.0000 H   0  0  0  0  0  0  0  0  0  0  0  0
    0.0000    0.0000    0.0000 H   0  0  0  0  0  0  0  0  0  0  0  0
    0.0000    0.0000    0.0000 H   0  0  0  0  0  0  0  0  0  0  0  0
    0.0000    0.0000    0.0000 H   0  0  0  0  0  0  0  0  0  0  0  0
    0.0000    0.0000    0.0000 H   0  0  0  0  0  0  0  0  0  0  0  0
    0.0000    0.0000    0.0000 H   0  0  0  0  0  0  0  0  0  0  0  0
    0.0000    0.0000    0.0000 H   0  0  0  0  0  0  0  0  0  0  0  0
    0.0000    0.0000    0.0000 H   0  0  0  0  0  0  0  0  0  0  0  0
    0.0000    0.0000    0.0000 H   0  0  0  0  0  0  0  0  0  0  0  0
    0.0000    0.0000    0.0000 H   0  0  0  0  0  0  0  0  0  0  0  0
   12.4049    5.2634    9.0577 C   0  0  0  0  0  0  0  0  0  0  0  0
   11.7354    6.2301    8.3772 C   0  0  0  0  0  0  0  0  0  0  0  0
   10.6971    5.8279    7.6132 N   0  0  0  0  0  0  0  0  0  0  0  0
   10.3284    4.5313    7.5191 C   0  0  0  0  0  0  0  0  0  0  0  0
   11.0342    3.5787    8.2264 C   0  0  0  0  0  0  0  0  0  0  0  0
   10.7042    2.2435    8.1688 C   0  0  0  0  0  0  0  0  0  0  0  0
   11.4295    1.3216    8.8870 C   0  0  0  0  0  0  0  0  0  0  0  0
   12.5014    1.6554    9.6880 C   0  0  0  0  0  0  0  0  0  0  0  0
   12.8407    2.9900    9.7531 C   0  0  0  0  0  0  0  0  0  0  0  0
   12.1250    3.9299    9.0399 C   0  0  0  0  0  0  0  0  0  0  0  0
   12.0364    7.2769    8.4559 H   0  0  0  0  0  0  0  0  0  0  0  0
    9.4808    4.2676    6.8855 H   0  0  0  0  0  0  0  0  0  0  0  0
    9.8577    1.9593    7.5393 H   0  0  0  0  0  0  0  0  0  0  0  0
   11.1366    0.2670    8.8159 H   0  0  0  0  0  0  0  0  0  0  0  0
   13.0432    0.8871   10.2367 H   0  0  0  0  0  0  0  0  0  0  0  0
   13.6786    3.2911   10.3732 H   0  0  0  0  0  0  0  0  0  0  0  0
  1  3  2  0
  1  4  1  0
  1  5  1  0
  2  4  1  0
  2  6  1  0
  4  9  1  0
  4 15  1  0
  5  6  1  0
  5  8  1  0
  6  7  2  3
  9 10  2  0
  9 14  1  0
 10 11  1  0
 11 12  2  0
 12 13  1  0
 13 14  2  0
 15 16  2  0
 15 20  1  0
 16 17  1  0
 17 18  2  0
 18 19  1  0
 19 20  2  0
  2 21  1  0
  7 22  1  0
  8 23  1  0
  8 24  1  0
  8 25  1  0
 10 26  1  0
 11 27  1  0
 12 28  1  0
 13 29  1  0
 14 30  1  0
 16 31  1  0
 17 32  1  0
 19 33  1  0
 20 34  1  0
 35 36  2  0
 36 37  1  0
 37 38  2  0
 38 39  1  0
 39 40  2  0
 40 41  1  0
 41 42  2  0
 42 43  1  0
 43 44  2  0
 44 35  1  0
 44 39  1  0
 36 45  1  0
 38 46  1  0
 40 47  1  0
 41 48  1  0
 42 49  1  0
 43 50  1  0
 18 35  1  0
M  END
>  <attachment_point>  (450) 
32

>  <score>  (450) 
<NA>

$$$$
4djw
     RDKit          3D

 47 50  0  0  0  0  0  0  0  0999 V2000
   22.4950   11.8750   22.5810 C   0  0  0  0  0  0  0  0  0  0  0  0
   22.5380    9.4930   22.4640 N   0  0  0  0  0  0  0  0  0  0  0  0
   22.3600   13.0630   22.3480 O   0  0  0  0  0  0  0  0  0  0  0  0
   22.3390   10.6680   21.5610 C   0  0  0  0  0  0  0  0  0  0  0  0
   22.7860   11.3350   23.8120 N   0  0  0  0  0  0  0  0  0  0  0  0
   22.7800    9.9140   23.7010 C   0  0  0  0  0  0  0  0  0  0  0  0
   22.9970    9.1110   24.7490 N   0  0  0  0  0  0  0  0  0  0  0  0
   23.0220   12.1410   25.0180 C   0  0  0  0  0  0  0  0  0  0  0  0
   20.9020   10.6270   21.0050 C   0  0  0  0  0  0  0  0  0  0  0  0
   20.2720    9.4140   20.7470 C   0  0  0  0  0  0  0  0  0  0  0  0
   18.9690    9.3760   20.2600 C   0  0  0  0  0  0  0  0  0  0  0  0
   18.2800   10.5440   20.0210 C   0  0  0  0  0  0  0  0  0  0  0  0
   18.8920   11.7530   20.2590 C   0  0  0  0  0  0  0  0  0  0  0  0
   20.1950   11.7970   20.7440 C   0  0  0  0  0  0  0  0  0  0  0  0
   23.4880   10.6920   20.5300 C   0  0  0  0  0  0  0  0  0  0  0  0
   23.2110   10.7890   19.1730 C   0  0  0  0  0  0  0  0  0  0  0  0
   24.2350   10.8650   18.2430 C   0  0  0  0  0  0  0  0  0  0  0  0
   25.5500   10.8410   18.6560 C   0  0  0  0  0  0  0  0  0  0  0  0
   25.8710   10.7460   20.0070 C   0  0  0  0  0  0  0  0  0  0  0  0
   24.8260   10.6610   20.9430 C   0  0  0  0  0  0  0  0  0  0  0  0
    0.0000    0.0000    0.0000 H   0  0  0  0  0  0  0  0  0  0  0  0
    0.0000    0.0000    0.0000 H   0  0  0  0  0  0  0  0  0  0  0  0
    0.0000    0.0000    0.0000 H   0  0  0  0  0  0  0  0  0  0  0  0
    0.0000    0.0000    0.0000 H   0  0  0  0  0  0  0  0  0  0  0  0
    0.0000    0.0000    0.0000 H   0  0  0  0  0  0  0  0  0  0  0  0
    0.0000    0.0000    0.0000 H   0  0  0  0  0  0  0  0  0  0  0  0
    0.0000    0.0000    0.0000 H   0  0  0  0  0  0  0  0  0  0  0  0
    0.0000    0.0000    0.0000 H   0  0  0  0  0  0  0  0  0  0  0  0
    0.0000    0.0000    0.0000 H   0  0  0  0  0  0  0  0  0  0  0  0
    0.0000    0.0000    0.0000 H   0  0  0  0  0  0  0  0  0  0  0  0
    0.0000    0.0000    0.0000 H   0  0  0  0  0  0  0  0  0  0  0  0
    0.0000    0.0000    0.0000 H   0  0  0  0  0  0  0  0  0  0  0  0
    0.0000    0.0000    0.0000 H   0  0  0  0  0  0  0  0  0  0  0  0
    0.0000    0.0000    0.0000 H   0  0  0  0  0  0  0  0  0  0  0  0
   12.4598    5.2868    9.0979 N   0  0  0  0  0  0  0  0  0  0  0  0
   12.7550    4.5176    7.9159 C   0  0  0  0  0  0  0  0  0  0  0  0
   12.8349    5.0912    6.6703 C   0  0  0  0  0  0  0  0  0  0  0  0
   13.1358    4.3082    5.5538 C   0  0  0  0  0  0  0  0  0  0  0  0
   13.3562    2.9528    5.6761 C   0  0  0  0  0  0  0  0  0  0  0  0
   13.7434    1.9574    4.2945 Cl  0  0  0  0  0  0  0  0  0  0  0  0
   13.2757    2.3672    6.9319 C   0  0  0  0  0  0  0  0  0  0  0  0
   12.9785    3.1589    8.0208 C   0  0  0  0  0  0  0  0  0  0  0  0
   11.5252    5.5416    9.4246 H   0  0  0  0  0  0  0  0  0  0  0  0
   12.6629    6.1493    6.5208 H   0  0  0  0  0  0  0  0  0  0  0  0
   13.2011    4.7218    4.5678 H   0  0  0  0  0  0  0  0  0  0  0  0
   13.4401    1.2917    7.0818 H   0  0  0  0  0  0  0  0  0  0  0  0
   12.9183    2.6953    8.9779 H   0  0  0  0  0  0  0  0  0  0  0  0
  1  3  2  0
  1  4  1  0
  1  5  1  0
  2  4  1  0
  2  6  1  0
  4  9  1  0
  4 15  1  0
  5  6  1  0
  5  8  1  0
  6  7  2  3
  9 10  2  0
  9 14  1  0
 10 11  1  0
 11 12  2  0
 12 13  1  0
 13 14  2  0
 15 16  2  0
 15 20  1  0
 16 17  1  0
 17 18  2  0
 18 19  1  0
 19 20  2  0
  2 21  1  0
  7 22  1  0
  8 23  1  0
  8 24  1  0
  8 25  1  0
 10 26  1  0
 11 27  1  0
 12 28  1  0
 13 29  1  0
 14 30  1  0
 16 31  1  0
 17 32  1  0
 19 33  1  0
 20 34  1  0
 35 36  1  0
 36 37  2  0
 37 38  1  0
 38 39  2  0
 39 40  1  0
 39 41  1  0
 41 42  2  0
 42 36  1  0
 35 43  1  0
 37 44  1  0
 38 45  1  0
 41 46  1  0
 42 47  1  0
 18 35  1  0
M  END
>  <attachment_point>  (451) 
32

>  <score>  (451) 
<NA>

$$$$
4djw
     RDKit          3D

 46 49  0  0  0  0  0  0  0  0999 V2000
   22.4950   11.8750   22.5810 C   0  0  0  0  0  0  0  0  0  0  0  0
   22.5380    9.4930   22.4640 N   0  0  0  0  0  0  0  0  0  0  0  0
   22.3600   13.0630   22.3480 O   0  0  0  0  0  0  0  0  0  0  0  0
   22.3390   10.6680   21.5610 C   0  0  0  0  0  0  0  0  0  0  0  0
   22.7860   11.3350   23.8120 N   0  0  0  0  0  0  0  0  0  0  0  0
   22.7800    9.9140   23.7010 C   0  0  0  0  0  0  0  0  0  0  0  0
   22.9970    9.1110   24.7490 N   0  0  0  0  0  0  0  0  0  0  0  0
   23.0220   12.1410   25.0180 C   0  0  0  0  0  0  0  0  0  0  0  0
   20.9020   10.6270   21.0050 C   0  0  0  0  0  0  0  0  0  0  0  0
   20.2720    9.4140   20.7470 C   0  0  0  0  0  0  0  0  0  0  0  0
   18.9690    9.3760   20.2600 C   0  0  0  0  0  0  0  0  0  0  0  0
   18.2800   10.5440   20.0210 C   0  0  0  0  0  0  0  0  0  0  0  0
   18.8920   11.7530   20.2590 C   0  0  0  0  0  0  0  0  0  0  0  0
   20.1950   11.7970   20.7440 C   0  0  0  0  0  0  0  0  0  0  0  0
   23.4880   10.6920   20.5300 C   0  0  0  0  0  0  0  0  0  0  0  0
   23.2110   10.7890   19.1730 C   0  0  0  0  0  0  0  0  0  0  0  0
   24.2350   10.8650   18.2430 C   0  0  0  0  0  0  0  0  0  0  0  0
   25.5500   10.8410   18.6560 C   0  0  0  0  0  0  0  0  0  0  0  0
   25.8710   10.7460   20.0070 C   0  0  0  0  0  0  0  0  0  0  0  0
   24.8260   10.6610   20.9430 C   0  0  0  0  0  0  0  0  0  0  0  0
    0.0000    0.0000    0.0000 H   0  0  0  0  0  0  0  0  0  0  0  0
    0.0000    0.0000    0.0000 H   0  0  0  0  0  0  0  0  0  0  0  0
    0.0000    0.0000    0.0000 H   0  0  0  0  0  0  0  0  0  0  0  0
    0.0000    0.0000    0.0000 H   0  0  0  0  0  0  0  0  0  0  0  0
    0.0000    0.0000    0.0000 H   0  0  0  0  0  0  0  0  0  0  0  0
    0.0000    0.0000    0.0000 H   0  0  0  0  0  0  0  0  0  0  0  0
    0.0000    0.0000    0.0000 H   0  0  0  0  0  0  0  0  0  0  0  0
    0.0000    0.0000    0.0000 H   0  0  0  0  0  0  0  0  0  0  0  0
    0.0000    0.0000    0.0000 H   0  0  0  0  0  0  0  0  0  0  0  0
    0.0000    0.0000    0.0000 H   0  0  0  0  0  0  0  0  0  0  0  0
    0.0000    0.0000    0.0000 H   0  0  0  0  0  0  0  0  0  0  0  0
    0.0000    0.0000    0.0000 H   0  0  0  0  0  0  0  0  0  0  0  0
    0.0000    0.0000    0.0000 H   0  0  0  0  0  0  0  0  0  0  0  0
    0.0000    0.0000    0.0000 H   0  0  0  0  0  0  0  0  0  0  0  0
   12.4475    5.2815    9.0889 N   0  0  0  0  0  0  0  0  0  0  0  0
   11.0720    5.5990    9.3993 C   0  0  0  0  0  0  0  0  0  0  0  0
   10.4457    5.4553    8.0044 C   0  0  0  0  0  0  0  0  0  0  0  0
   11.1269    4.1683    7.5746 C   0  0  0  0  0  0  0  0  0  0  0  0
   12.5297    4.4782    7.9260 C   0  0  0  0  0  0  0  0  0  0  0  0
   13.5797    4.1275    7.3496 O   0  0  0  0  0  0  0  0  0  0  0  0
   10.9298    6.5929    9.8121 H   0  0  0  0  0  0  0  0  0  0  0  0
   10.5810    4.7936   10.0054 H   0  0  0  0  0  0  0  0  0  0  0  0
    9.3595    5.3612    8.0584 H   0  0  0  0  0  0  0  0  0  0  0  0
   10.7994    6.2632    7.3440 H   0  0  0  0  0  0  0  0  0  0  0  0
   10.9884    3.9482    6.5033 H   0  0  0  0  0  0  0  0  0  0  0  0
   10.7233    3.3296    8.1991 H   0  0  0  0  0  0  0  0  0  0  0  0
  1  3  2  0
  1  4  1  0
  1  5  1  0
  2  4  1  0
  2  6  1  0
  4  9  1  0
  4 15  1  0
  5  6  1  0
  5  8  1  0
  6  7  2  3
  9 10  2  0
  9 14  1  0
 10 11  1  0
 11 12  2  0
 12 13  1  0
 13 14  2  0
 15 16  2  0
 15 20  1  0
 16 17  1  0
 17 18  2  0
 18 19  1  0
 19 20  2  0
  2 21  1  0
  7 22  1  0
  8 23  1  0
  8 24  1  0
  8 25  1  0
 10 26  1  0
 11 27  1  0
 12 28  1  0
 13 29  1  0
 14 30  1  0
 16 31  1  0
 17 32  1  0
 19 33  1  0
 20 34  1  0
 35 36  1  0
 36 37  1  0
 37 38  1  0
 38 39  1  0
 39 40  2  0
 39 35  1  0
 36 41  1  0
 36 42  1  0
 37 43  1  0
 37 44  1  0
 38 45  1  0
 38 46  1  0
 18 35  1  0
M  END
>  <attachment_point>  (452) 
32

>  <score>  (452) 
<NA>

$$$$
4djw
     RDKit          3D

 56 60  0  0  0  0  0  0  0  0999 V2000
   22.4950   11.8750   22.5810 C   0  0  0  0  0  0  0  0  0  0  0  0
   22.5380    9.4930   22.4640 N   0  0  0  0  0  0  0  0  0  0  0  0
   22.3600   13.0630   22.3480 O   0  0  0  0  0  0  0  0  0  0  0  0
   22.3390   10.6680   21.5610 C   0  0  0  0  0  0  0  0  0  0  0  0
   22.7860   11.3350   23.8120 N   0  0  0  0  0  0  0  0  0  0  0  0
   22.7800    9.9140   23.7010 C   0  0  0  0  0  0  0  0  0  0  0  0
   22.9970    9.1110   24.7490 N   0  0  0  0  0  0  0  0  0  0  0  0
   23.0220   12.1410   25.0180 C   0  0  0  0  0  0  0  0  0  0  0  0
   20.9020   10.6270   21.0050 C   0  0  0  0  0  0  0  0  0  0  0  0
   20.2720    9.4140   20.7470 C   0  0  0  0  0  0  0  0  0  0  0  0
   18.9690    9.3760   20.2600 C   0  0  0  0  0  0  0  0  0  0  0  0
   18.2800   10.5440   20.0210 C   0  0  0  0  0  0  0  0  0  0  0  0
   18.8920   11.7530   20.2590 C   0  0  0  0  0  0  0  0  0  0  0  0
   20.1950   11.7970   20.7440 C   0  0  0  0  0  0  0  0  0  0  0  0
   23.4880   10.6920   20.5300 C   0  0  0  0  0  0  0  0  0  0  0  0
   23.2110   10.7890   19.1730 C   0  0  0  0  0  0  0  0  0  0  0  0
   24.2350   10.8650   18.2430 C   0  0  0  0  0  0  0  0  0  0  0  0
   25.5500   10.8410   18.6560 C   0  0  0  0  0  0  0  0  0  0  0  0
   25.8710   10.7460   20.0070 C   0  0  0  0  0  0  0  0  0  0  0  0
   24.8260   10.6610   20.9430 C   0  0  0  0  0  0  0  0  0  0  0  0
    0.0000    0.0000    0.0000 H   0  0  0  0  0  0  0  0  0  0  0  0
    0.0000    0.0000    0.0000 H   0  0  0  0  0  0  0  0  0  0  0  0
    0.0000    0.0000    0.0000 H   0  0  0  0  0  0  0  0  0  0  0  0
    0.0000    0.0000    0.0000 H   0  0  0  0  0  0  0  0  0  0  0  0
    0.0000    0.0000    0.0000 H   0  0  0  0  0  0  0  0  0  0  0  0
    0.0000    0.0000    0.0000 H   0  0  0  0  0  0  0  0  0  0  0  0
    0.0000    0.0000    0.0000 H   0  0  0  0  0  0  0  0  0  0  0  0
    0.0000    0.0000    0.0000 H   0  0  0  0  0  0  0  0  0  0  0  0
    0.0000    0.0000    0.0000 H   0  0  0  0  0  0  0  0  0  0  0  0
    0.0000    0.0000    0.0000 H   0  0  0  0  0  0  0  0  0  0  0  0
    0.0000    0.0000    0.0000 H   0  0  0  0  0  0  0  0  0  0  0  0
    0.0000    0.0000    0.0000 H   0  0  0  0  0  0  0  0  0  0  0  0
    0.0000    0.0000    0.0000 H   0  0  0  0  0  0  0  0  0  0  0  0
    0.0000    0.0000    0.0000 H   0  0  0  0  0  0  0  0  0  0  0  0
   12.4626    5.2879    9.0999 N   0  0  0  0  0  0  0  0  0  0  0  0
   11.6668    4.3429    9.8929 C   0  0  0  0  0  0  0  0  0  0  0  0
   12.6644    3.2246   10.1304 C   0  0  0  0  0  0  0  0  0  0  0  0
   13.6200    3.3080    8.9756 C   0  0  2  0  0  0  0  0  0  0  0  0
   14.9161    3.9808    9.3109 C   0  0  0  0  0  0  0  0  0  0  0  0
   15.2641    4.8080    8.1769 N   0  0  0  0  0  0  0  0  0  0  0  0
   16.4617    4.3673    7.5175 C   0  0  0  0  0  0  0  0  0  0  0  0
   14.1217    4.9113    7.3318 C   0  0  0  0  0  0  0  0  0  0  0  0
   12.9693    4.3636    8.0806 C   0  0  2  0  0  0  0  0  0  0  0  0
   11.2682    4.7793   10.8016 H   0  0  0  0  0  0  0  0  0  0  0  0
   10.8840    3.9564    9.2009 H   0  0  0  0  0  0  0  0  0  0  0  0
   12.1195    2.2502   10.0262 H   0  0  0  0  0  0  0  0  0  0  0  0
   13.1345    3.2685   11.1158 H   0  0  0  0  0  0  0  0  0  0  0  0
   13.7406    2.3576    8.4547 H   0  0  0  0  0  0  0  0  0  0  0  0
   15.6672    3.1858    9.5068 H   0  0  0  0  0  0  0  0  0  0  0  0
   14.8559    4.6339   10.1958 H   0  0  0  0  0  0  0  0  0  0  0  0
   17.0899    3.7095    8.1585 H   0  0  0  0  0  0  0  0  0  0  0  0
   17.0846    5.2626    7.2611 H   0  0  0  0  0  0  0  0  0  0  0  0
   16.2502    3.8791    6.5322 H   0  0  0  0  0  0  0  0  0  0  0  0
   14.0053    6.0029    7.0666 H   0  0  0  0  0  0  0  0  0  0  0  0
   14.2746    4.3268    6.4111 H   0  0  0  0  0  0  0  0  0  0  0  0
   12.1424    3.9774    7.5009 H   0  0  0  0  0  0  0  0  0  0  0  0
  1  3  2  0
  1  4  1  0
  1  5  1  0
  2  4  1  0
  2  6  1  0
  4  9  1  0
  4 15  1  0
  5  6  1  0
  5  8  1  0
  6  7  2  3
  9 10  2  0
  9 14  1  0
 10 11  1  0
 11 12  2  0
 12 13  1  0
 13 14  2  0
 15 16  2  0
 15 20  1  0
 16 17  1  0
 17 18  2  0
 18 19  1  0
 19 20  2  0
  2 21  1  0
  7 22  1  0
  8 23  1  0
  8 24  1  0
  8 25  1  0
 10 26  1  0
 11 27  1  0
 12 28  1  0
 13 29  1  0
 14 30  1  0
 16 31  1  0
 17 32  1  0
 19 33  1  0
 20 34  1  0
 35 36  1  0
 36 37  1  0
 37 38  1  0
 38 39  1  0
 39 40  1  0
 40 41  1  0
 40 42  1  0
 42 43  1  0
 43 35  1  0
 43 38  1  0
 36 44  1  0
 36 45  1  0
 37 46  1  0
 37 47  1  0
 38 48  1  6
 39 49  1  0
 39 50  1  0
 41 51  1  0
 41 52  1  0
 41 53  1  0
 42 54  1  0
 42 55  1  0
 43 56  1  6
 18 35  1  0
M  END
>  <attachment_point>  (453) 
32

>  <score>  (453) 
<NA>

$$$$
4djw
     RDKit          3D

 53 56  0  0  0  0  0  0  0  0999 V2000
   22.4950   11.8750   22.5810 C   0  0  0  0  0  0  0  0  0  0  0  0
   22.5380    9.4930   22.4640 N   0  0  0  0  0  0  0  0  0  0  0  0
   22.3600   13.0630   22.3480 O   0  0  0  0  0  0  0  0  0  0  0  0
   22.3390   10.6680   21.5610 C   0  0  0  0  0  0  0  0  0  0  0  0
   22.7860   11.3350   23.8120 N   0  0  0  0  0  0  0  0  0  0  0  0
   22.7800    9.9140   23.7010 C   0  0  0  0  0  0  0  0  0  0  0  0
   22.9970    9.1110   24.7490 N   0  0  0  0  0  0  0  0  0  0  0  0
   23.0220   12.1410   25.0180 C   0  0  0  0  0  0  0  0  0  0  0  0
   20.9020   10.6270   21.0050 C   0  0  0  0  0  0  0  0  0  0  0  0
   20.2720    9.4140   20.7470 C   0  0  0  0  0  0  0  0  0  0  0  0
   18.9690    9.3760   20.2600 C   0  0  0  0  0  0  0  0  0  0  0  0
   18.2800   10.5440   20.0210 C   0  0  0  0  0  0  0  0  0  0  0  0
   18.8920   11.7530   20.2590 C   0  0  0  0  0  0  0  0  0  0  0  0
   20.1950   11.7970   20.7440 C   0  0  0  0  0  0  0  0  0  0  0  0
   23.4880   10.6920   20.5300 C   0  0  0  0  0  0  0  0  0  0  0  0
   23.2110   10.7890   19.1730 C   0  0  0  0  0  0  0  0  0  0  0  0
   24.2350   10.8650   18.2430 C   0  0  0  0  0  0  0  0  0  0  0  0
   25.5500   10.8410   18.6560 C   0  0  0  0  0  0  0  0  0  0  0  0
   25.8710   10.7460   20.0070 C   0  0  0  0  0  0  0  0  0  0  0  0
   24.8260   10.6610   20.9430 C   0  0  0  0  0  0  0  0  0  0  0  0
    0.0000    0.0000    0.0000 H   0  0  0  0  0  0  0  0  0  0  0  0
    0.0000    0.0000    0.0000 H   0  0  0  0  0  0  0  0  0  0  0  0
    0.0000    0.0000    0.0000 H   0  0  0  0  0  0  0  0  0  0  0  0
    0.0000    0.0000    0.0000 H   0  0  0  0  0  0  0  0  0  0  0  0
    0.0000    0.0000    0.0000 H   0  0  0  0  0  0  0  0  0  0  0  0
    0.0000    0.0000    0.0000 H   0  0  0  0  0  0  0  0  0  0  0  0
    0.0000    0.0000    0.0000 H   0  0  0  0  0  0  0  0  0  0  0  0
    0.0000    0.0000    0.0000 H   0  0  0  0  0  0  0  0  0  0  0  0
    0.0000    0.0000    0.0000 H   0  0  0  0  0  0  0  0  0  0  0  0
    0.0000    0.0000    0.0000 H   0  0  0  0  0  0  0  0  0  0  0  0
    0.0000    0.0000    0.0000 H   0  0  0  0  0  0  0  0  0  0  0  0
    0.0000    0.0000    0.0000 H   0  0  0  0  0  0  0  0  0  0  0  0
    0.0000    0.0000    0.0000 H   0  0  0  0  0  0  0  0  0  0  0  0
    0.0000    0.0000    0.0000 H   0  0  0  0  0  0  0  0  0  0  0  0
   12.4190    5.2694    9.0680 N   0  0  0  0  0  0  0  0  0  0  0  0
   11.1451    5.2461    9.6264 C   0  0  0  0  0  0  0  0  0  0  0  0
   10.9512    5.6295   10.8247 O   0  0  0  0  0  0  0  0  0  0  0  0
   10.0301    4.7743    8.8162 C   0  0  0  0  0  0  0  0  0  0  0  0
    8.7650    4.7599    9.3958 C   0  0  0  0  0  0  0  0  0  0  0  0
    7.7062    4.3163    8.6391 C   0  0  0  0  0  0  0  0  0  0  0  0
    7.8647    3.8896    7.3335 C   0  0  0  0  0  0  0  0  0  0  0  0
    6.7671    3.4421    6.5847 O   0  0  0  0  0  0  0  0  0  0  0  0
    5.4736    3.4070    7.1191 C   0  0  0  0  0  0  0  0  0  0  0  0
    9.1296    3.9154    6.7867 C   0  0  0  0  0  0  0  0  0  0  0  0
   10.2067    4.3580    7.5315 C   0  0  0  0  0  0  0  0  0  0  0  0
   12.7229    4.9996    8.1427 H   0  0  0  0  0  0  0  0  0  0  0  0
    8.6171    5.0868   10.4092 H   0  0  0  0  0  0  0  0  0  0  0  0
    6.7150    4.2957    9.0664 H   0  0  0  0  0  0  0  0  0  0  0  0
    5.5089    2.9340    8.1444 H   0  0  0  0  0  0  0  0  0  0  0  0
    5.0377    4.4250    7.2229 H   0  0  0  0  0  0  0  0  0  0  0  0
    4.8218    2.7348    6.5247 H   0  0  0  0  0  0  0  0  0  0  0  0
    9.2761    3.5807    5.7516 H   0  0  0  0  0  0  0  0  0  0  0  0
   11.1633    4.3494    7.0369 H   0  0  0  0  0  0  0  0  0  0  0  0
  1  3  2  0
  1  4  1  0
  1  5  1  0
  2  4  1  0
  2  6  1  0
  4  9  1  0
  4 15  1  0
  5  6  1  0
  5  8  1  0
  6  7  2  3
  9 10  2  0
  9 14  1  0
 10 11  1  0
 11 12  2  0
 12 13  1  0
 13 14  2  0
 15 16  2  0
 15 20  1  0
 16 17  1  0
 17 18  2  0
 18 19  1  0
 19 20  2  0
  2 21  1  0
  7 22  1  0
  8 23  1  0
  8 24  1  0
  8 25  1  0
 10 26  1  0
 11 27  1  0
 12 28  1  0
 13 29  1  0
 14 30  1  0
 16 31  1  0
 17 32  1  0
 19 33  1  0
 20 34  1  0
 35 36  1  0
 36 37  2  0
 36 38  1  0
 38 39  2  0
 39 40  1  0
 40 41  2  0
 41 42  1  0
 42 43  1  0
 41 44  1  0
 44 45  2  0
 45 38  1  0
 35 46  1  0
 39 47  1  0
 40 48  1  0
 43 49  1  0
 43 50  1  0
 43 51  1  0
 44 52  1  0
 45 53  1  0
 18 35  1  0
M  END
>  <attachment_point>  (454) 
32

>  <score>  (454) 
<NA>

$$$$
4djw
     RDKit          3D

 47 50  0  0  0  0  0  0  0  0999 V2000
   22.4950   11.8750   22.5810 C   0  0  0  0  0  0  0  0  0  0  0  0
   22.5380    9.4930   22.4640 N   0  0  0  0  0  0  0  0  0  0  0  0
   22.3600   13.0630   22.3480 O   0  0  0  0  0  0  0  0  0  0  0  0
   22.3390   10.6680   21.5610 C   0  0  0  0  0  0  0  0  0  0  0  0
   22.7860   11.3350   23.8120 N   0  0  0  0  0  0  0  0  0  0  0  0
   22.7800    9.9140   23.7010 C   0  0  0  0  0  0  0  0  0  0  0  0
   22.9970    9.1110   24.7490 N   0  0  0  0  0  0  0  0  0  0  0  0
   23.0220   12.1410   25.0180 C   0  0  0  0  0  0  0  0  0  0  0  0
   20.9020   10.6270   21.0050 C   0  0  0  0  0  0  0  0  0  0  0  0
   20.2720    9.4140   20.7470 C   0  0  0  0  0  0  0  0  0  0  0  0
   18.9690    9.3760   20.2600 C   0  0  0  0  0  0  0  0  0  0  0  0
   18.2800   10.5440   20.0210 C   0  0  0  0  0  0  0  0  0  0  0  0
   18.8920   11.7530   20.2590 C   0  0  0  0  0  0  0  0  0  0  0  0
   20.1950   11.7970   20.7440 C   0  0  0  0  0  0  0  0  0  0  0  0
   23.4880   10.6920   20.5300 C   0  0  0  0  0  0  0  0  0  0  0  0
   23.2110   10.7890   19.1730 C   0  0  0  0  0  0  0  0  0  0  0  0
   24.2350   10.8650   18.2430 C   0  0  0  0  0  0  0  0  0  0  0  0
   25.5500   10.8410   18.6560 C   0  0  0  0  0  0  0  0  0  0  0  0
   25.8710   10.7460   20.0070 C   0  0  0  0  0  0  0  0  0  0  0  0
   24.8260   10.6610   20.9430 C   0  0  0  0  0  0  0  0  0  0  0  0
    0.0000    0.0000    0.0000 H   0  0  0  0  0  0  0  0  0  0  0  0
    0.0000    0.0000    0.0000 H   0  0  0  0  0  0  0  0  0  0  0  0
    0.0000    0.0000    0.0000 H   0  0  0  0  0  0  0  0  0  0  0  0
    0.0000    0.0000    0.0000 H   0  0  0  0  0  0  0  0  0  0  0  0
    0.0000    0.0000    0.0000 H   0  0  0  0  0  0  0  0  0  0  0  0
    0.0000    0.0000    0.0000 H   0  0  0  0  0  0  0  0  0  0  0  0
    0.0000    0.0000    0.0000 H   0  0  0  0  0  0  0  0  0  0  0  0
    0.0000    0.0000    0.0000 H   0  0  0  0  0  0  0  0  0  0  0  0
    0.0000    0.0000    0.0000 H   0  0  0  0  0  0  0  0  0  0  0  0
    0.0000    0.0000    0.0000 H   0  0  0  0  0  0  0  0  0  0  0  0
    0.0000    0.0000    0.0000 H   0  0  0  0  0  0  0  0  0  0  0  0
    0.0000    0.0000    0.0000 H   0  0  0  0  0  0  0  0  0  0  0  0
    0.0000    0.0000    0.0000 H   0  0  0  0  0  0  0  0  0  0  0  0
    0.0000    0.0000    0.0000 H   0  0  0  0  0  0  0  0  0  0  0  0
   12.4010    5.2618    9.0550 C   0  0  0  0  0  0  0  0  0  0  0  0
   11.7886    6.2238    8.3136 C   0  0  0  0  0  0  0  0  0  0  0  0
   10.6997    5.8903    7.4875 C   0  0  0  0  0  0  0  0  0  0  0  0
   10.3119    4.5796    7.4804 C   0  0  0  0  0  0  0  0  0  0  0  0
    9.1744    4.1052    6.6477 C   0  0  0  0  0  0  0  0  0  0  0  0
   10.9766    3.6679    8.2530 C   0  0  0  0  0  0  0  0  0  0  0  0
   12.0395    4.0116    9.0550 N   0  0  0  0  0  0  0  0  0  0  0  0
   12.1288    7.2255    8.3556 H   0  0  0  0  0  0  0  0  0  0  0  0
   10.1909    6.6129    6.8901 H   0  0  0  0  0  0  0  0  0  0  0  0
    8.4492    3.6367    7.3449 H   0  0  0  0  0  0  0  0  0  0  0  0
    9.5401    3.2722    5.9863 H   0  0  0  0  0  0  0  0  0  0  0  0
    8.7583    4.8714    5.9994 H   0  0  0  0  0  0  0  0  0  0  0  0
   10.6536    2.6292    8.2343 H   0  0  0  0  0  0  0  0  0  0  0  0
  1  3  2  0
  1  4  1  0
  1  5  1  0
  2  4  1  0
  2  6  1  0
  4  9  1  0
  4 15  1  0
  5  6  1  0
  5  8  1  0
  6  7  2  3
  9 10  2  0
  9 14  1  0
 10 11  1  0
 11 12  2  0
 12 13  1  0
 13 14  2  0
 15 16  2  0
 15 20  1  0
 16 17  1  0
 17 18  2  0
 18 19  1  0
 19 20  2  0
  2 21  1  0
  7 22  1  0
  8 23  1  0
  8 24  1  0
  8 25  1  0
 10 26  1  0
 11 27  1  0
 12 28  1  0
 13 29  1  0
 14 30  1  0
 16 31  1  0
 17 32  1  0
 19 33  1  0
 20 34  1  0
 35 36  2  0
 36 37  1  0
 37 38  2  0
 38 39  1  0
 38 40  1  0
 40 41  2  0
 41 35  1  0
 36 42  1  0
 37 43  1  0
 39 44  1  0
 39 45  1  0
 39 46  1  0
 40 47  1  0
 18 35  1  0
M  END
>  <attachment_point>  (455) 
32

>  <score>  (455) 
<NA>

$$$$
4djw
     RDKit          3D

 49 52  0  0  0  0  0  0  0  0999 V2000
   22.4950   11.8750   22.5810 C   0  0  0  0  0  0  0  0  0  0  0  0
   22.5380    9.4930   22.4640 N   0  0  0  0  0  0  0  0  0  0  0  0
   22.3600   13.0630   22.3480 O   0  0  0  0  0  0  0  0  0  0  0  0
   22.3390   10.6680   21.5610 C   0  0  0  0  0  0  0  0  0  0  0  0
   22.7860   11.3350   23.8120 N   0  0  0  0  0  0  0  0  0  0  0  0
   22.7800    9.9140   23.7010 C   0  0  0  0  0  0  0  0  0  0  0  0
   22.9970    9.1110   24.7490 N   0  0  0  0  0  0  0  0  0  0  0  0
   23.0220   12.1410   25.0180 C   0  0  0  0  0  0  0  0  0  0  0  0
   20.9020   10.6270   21.0050 C   0  0  0  0  0  0  0  0  0  0  0  0
   20.2720    9.4140   20.7470 C   0  0  0  0  0  0  0  0  0  0  0  0
   18.9690    9.3760   20.2600 C   0  0  0  0  0  0  0  0  0  0  0  0
   18.2800   10.5440   20.0210 C   0  0  0  0  0  0  0  0  0  0  0  0
   18.8920   11.7530   20.2590 C   0  0  0  0  0  0  0  0  0  0  0  0
   20.1950   11.7970   20.7440 C   0  0  0  0  0  0  0  0  0  0  0  0
   23.4880   10.6920   20.5300 C   0  0  0  0  0  0  0  0  0  0  0  0
   23.2110   10.7890   19.1730 C   0  0  0  0  0  0  0  0  0  0  0  0
   24.2350   10.8650   18.2430 C   0  0  0  0  0  0  0  0  0  0  0  0
   25.5500   10.8410   18.6560 C   0  0  0  0  0  0  0  0  0  0  0  0
   25.8710   10.7460   20.0070 C   0  0  0  0  0  0  0  0  0  0  0  0
   24.8260   10.6610   20.9430 C   0  0  0  0  0  0  0  0  0  0  0  0
    0.0000    0.0000    0.0000 H   0  0  0  0  0  0  0  0  0  0  0  0
    0.0000    0.0000    0.0000 H   0  0  0  0  0  0  0  0  0  0  0  0
    0.0000    0.0000    0.0000 H   0  0  0  0  0  0  0  0  0  0  0  0
    0.0000    0.0000    0.0000 H   0  0  0  0  0  0  0  0  0  0  0  0
    0.0000    0.0000    0.0000 H   0  0  0  0  0  0  0  0  0  0  0  0
    0.0000    0.0000    0.0000 H   0  0  0  0  0  0  0  0  0  0  0  0
    0.0000    0.0000    0.0000 H   0  0  0  0  0  0  0  0  0  0  0  0
    0.0000    0.0000    0.0000 H   0  0  0  0  0  0  0  0  0  0  0  0
    0.0000    0.0000    0.0000 H   0  0  0  0  0  0  0  0  0  0  0  0
    0.0000    0.0000    0.0000 H   0  0  0  0  0  0  0  0  0  0  0  0
    0.0000    0.0000    0.0000 H   0  0  0  0  0  0  0  0  0  0  0  0
    0.0000    0.0000    0.0000 H   0  0  0  0  0  0  0  0  0  0  0  0
    0.0000    0.0000    0.0000 H   0  0  0  0  0  0  0  0  0  0  0  0
    0.0000    0.0000    0.0000 H   0  0  0  0  0  0  0  0  0  0  0  0
   12.3280    5.2308    9.0016 O   0  0  0  0  0  0  0  0  0  0  0  0
   11.6130    6.4121    8.9420 C   0  0  0  0  0  0  0  0  0  0  0  0
   11.5080    7.0425    7.7195 C   0  0  0  0  0  0  0  0  0  0  0  0
   10.7925    8.2221    7.6672 C   0  0  0  0  0  0  0  0  0  0  0  0
   10.1931    8.7687    8.7958 C   0  0  0  0  0  0  0  0  0  0  0  0
   10.2985    8.1381   10.0175 C   0  0  0  0  0  0  0  0  0  0  0  0
    9.6773    8.6780   11.2583 C   0  0  0  0  0  0  0  0  0  0  0  0
   11.0131    6.9602   10.0698 C   0  0  0  0  0  0  0  0  0  0  0  0
   11.9639    6.6424    6.8188 H   0  0  0  0  0  0  0  0  0  0  0  0
   10.7095    8.7170    6.7094 H   0  0  0  0  0  0  0  0  0  0  0  0
    9.6378    9.6828    8.7587 H   0  0  0  0  0  0  0  0  0  0  0  0
    9.1481    9.6122   11.0674 H   0  0  0  0  0  0  0  0  0  0  0  0
   10.4593    8.9156   12.0344 H   0  0  0  0  0  0  0  0  0  0  0  0
    9.0050    7.9244   11.7435 H   0  0  0  0  0  0  0  0  0  0  0  0
   11.0978    6.4616   11.0296 H   0  0  0  0  0  0  0  0  0  0  0  0
  1  3  2  0
  1  4  1  0
  1  5  1  0
  2  4  1  0
  2  6  1  0
  4  9  1  0
  4 15  1  0
  5  6  1  0
  5  8  1  0
  6  7  2  3
  9 10  2  0
  9 14  1  0
 10 11  1  0
 11 12  2  0
 12 13  1  0
 13 14  2  0
 15 16  2  0
 15 20  1  0
 16 17  1  0
 17 18  2  0
 18 19  1  0
 19 20  2  0
  2 21  1  0
  7 22  1  0
  8 23  1  0
  8 24  1  0
  8 25  1  0
 10 26  1  0
 11 27  1  0
 12 28  1  0
 13 29  1  0
 14 30  1  0
 16 31  1  0
 17 32  1  0
 19 33  1  0
 20 34  1  0
 35 36  1  0
 36 37  2  0
 37 38  1  0
 38 39  2  0
 39 40  1  0
 40 41  1  0
 40 42  2  0
 42 36  1  0
 37 43  1  0
 38 44  1  0
 39 45  1  0
 41 46  1  0
 41 47  1  0
 41 48  1  0
 42 49  1  0
 18 35  1  0
M  END
>  <attachment_point>  (456) 
32

>  <score>  (456) 
<NA>

$$$$
4djw
     RDKit          3D

 55 58  0  0  0  0  0  0  0  0999 V2000
   22.4950   11.8750   22.5810 C   0  0  0  0  0  0  0  0  0  0  0  0
   22.5380    9.4930   22.4640 N   0  0  0  0  0  0  0  0  0  0  0  0
   22.3600   13.0630   22.3480 O   0  0  0  0  0  0  0  0  0  0  0  0
   22.3390   10.6680   21.5610 C   0  0  0  0  0  0  0  0  0  0  0  0
   22.7860   11.3350   23.8120 N   0  0  0  0  0  0  0  0  0  0  0  0
   22.7800    9.9140   23.7010 C   0  0  0  0  0  0  0  0  0  0  0  0
   22.9970    9.1110   24.7490 N   0  0  0  0  0  0  0  0  0  0  0  0
   23.0220   12.1410   25.0180 C   0  0  0  0  0  0  0  0  0  0  0  0
   20.9020   10.6270   21.0050 C   0  0  0  0  0  0  0  0  0  0  0  0
   20.2720    9.4140   20.7470 C   0  0  0  0  0  0  0  0  0  0  0  0
   18.9690    9.3760   20.2600 C   0  0  0  0  0  0  0  0  0  0  0  0
   18.2800   10.5440   20.0210 C   0  0  0  0  0  0  0  0  0  0  0  0
   18.8920   11.7530   20.2590 C   0  0  0  0  0  0  0  0  0  0  0  0
   20.1950   11.7970   20.7440 C   0  0  0  0  0  0  0  0  0  0  0  0
   23.4880   10.6920   20.5300 C   0  0  0  0  0  0  0  0  0  0  0  0
   23.2110   10.7890   19.1730 C   0  0  0  0  0  0  0  0  0  0  0  0
   24.2350   10.8650   18.2430 C   0  0  0  0  0  0  0  0  0  0  0  0
   25.5500   10.8410   18.6560 C   0  0  0  0  0  0  0  0  0  0  0  0
   25.8710   10.7460   20.0070 C   0  0  0  0  0  0  0  0  0  0  0  0
   24.8260   10.6610   20.9430 C   0  0  0  0  0  0  0  0  0  0  0  0
    0.0000    0.0000    0.0000 H   0  0  0  0  0  0  0  0  0  0  0  0
    0.0000    0.0000    0.0000 H   0  0  0  0  0  0  0  0  0  0  0  0
    0.0000    0.0000    0.0000 H   0  0  0  0  0  0  0  0  0  0  0  0
    0.0000    0.0000    0.0000 H   0  0  0  0  0  0  0  0  0  0  0  0
    0.0000    0.0000    0.0000 H   0  0  0  0  0  0  0  0  0  0  0  0
    0.0000    0.0000    0.0000 H   0  0  0  0  0  0  0  0  0  0  0  0
    0.0000    0.0000    0.0000 H   0  0  0  0  0  0  0  0  0  0  0  0
    0.0000    0.0000    0.0000 H   0  0  0  0  0  0  0  0  0  0  0  0
    0.0000    0.0000    0.0000 H   0  0  0  0  0  0  0  0  0  0  0  0
    0.0000    0.0000    0.0000 H   0  0  0  0  0  0  0  0  0  0  0  0
    0.0000    0.0000    0.0000 H   0  0  0  0  0  0  0  0  0  0  0  0
    0.0000    0.0000    0.0000 H   0  0  0  0  0  0  0  0  0  0  0  0
    0.0000    0.0000    0.0000 H   0  0  0  0  0  0  0  0  0  0  0  0
    0.0000    0.0000    0.0000 H   0  0  0  0  0  0  0  0  0  0  0  0
   12.2603    5.2021    8.9522 B   0  0  0  0  0  0  0  0  0  0  0  0
   11.2092    5.4977    9.9413 O   0  0  0  0  0  0  0  0  0  0  0  0
   10.7534    4.1904   10.2115 C   0  0  0  0  0  0  0  0  0  0  0  0
   10.0384    3.7271    8.9679 C   0  0  0  0  0  0  0  0  0  0  0  0
    9.9463    4.0949   11.4519 C   0  0  0  0  0  0  0  0  0  0  0  0
   12.0843    3.4554   10.2950 C   0  0  0  0  0  0  0  0  0  0  0  0
   11.9024    1.9885   10.5012 C   0  0  0  0  0  0  0  0  0  0  0  0
   13.0180    4.0880   11.2958 C   0  0  0  0  0  0  0  0  0  0  0  0
   12.5973    3.7667    9.0212 O   0  0  0  0  0  0  0  0  0  0  0  0
   10.8034    3.7673    8.1437 H   0  0  0  0  0  0  0  0  0  0  0  0
    9.2324    4.4491    8.6814 H   0  0  0  0  0  0  0  0  0  0  0  0
    9.5690    2.7437    9.0620 H   0  0  0  0  0  0  0  0  0  0  0  0
   10.5625    3.8613   12.3321 H   0  0  0  0  0  0  0  0  0  0  0  0
    9.2843    4.9720   11.5876 H   0  0  0  0  0  0  0  0  0  0  0  0
    9.2429    3.2199   11.3287 H   0  0  0  0  0  0  0  0  0  0  0  0
   10.9794    1.6274   10.0240 H   0  0  0  0  0  0  0  0  0  0  0  0
   11.7739    1.8192   11.5961 H   0  0  0  0  0  0  0  0  0  0  0  0
   12.7333    1.3793   10.1144 H   0  0  0  0  0  0  0  0  0  0  0  0
   12.7113    3.9685   12.3354 H   0  0  0  0  0  0  0  0  0  0  0  0
   13.1446    5.1567   10.9827 H   0  0  0  0  0  0  0  0  0  0  0  0
   14.0007    3.5975   11.1779 H   0  0  0  0  0  0  0  0  0  0  0  0
  1  3  2  0
  1  4  1  0
  1  5  1  0
  2  4  1  0
  2  6  1  0
  4  9  1  0
  4 15  1  0
  5  6  1  0
  5  8  1  0
  6  7  2  3
  9 10  2  0
  9 14  1  0
 10 11  1  0
 11 12  2  0
 12 13  1  0
 13 14  2  0
 15 16  2  0
 15 20  1  0
 16 17  1  0
 17 18  2  0
 18 19  1  0
 19 20  2  0
  2 21  1  0
  7 22  1  0
  8 23  1  0
  8 24  1  0
  8 25  1  0
 10 26  1  0
 11 27  1  0
 12 28  1  0
 13 29  1  0
 14 30  1  0
 16 31  1  0
 17 32  1  0
 19 33  1  0
 20 34  1  0
 35 36  1  0
 36 37  1  0
 37 38  1  0
 37 39  1  0
 37 40  1  0
 40 41  1  0
 40 42  1  0
 40 43  1  0
 43 35  1  0
 38 44  1  0
 38 45  1  0
 38 46  1  0
 39 47  1  0
 39 48  1  0
 39 49  1  0
 41 50  1  0
 41 51  1  0
 41 52  1  0
 42 53  1  0
 42 54  1  0
 42 55  1  0
 18 35  1  0
M  END
>  <attachment_point>  (457) 
32

>  <score>  (457) 
<NA>

$$$$
4djw
     RDKit          3D

 51 53  0  0  0  0  0  0  0  0999 V2000
   22.4950   11.8750   22.5810 C   0  0  0  0  0  0  0  0  0  0  0  0
   22.5380    9.4930   22.4640 N   0  0  0  0  0  0  0  0  0  0  0  0
   22.3600   13.0630   22.3480 O   0  0  0  0  0  0  0  0  0  0  0  0
   22.3390   10.6680   21.5610 C   0  0  0  0  0  0  0  0  0  0  0  0
   22.7860   11.3350   23.8120 N   0  0  0  0  0  0  0  0  0  0  0  0
   22.7800    9.9140   23.7010 C   0  0  0  0  0  0  0  0  0  0  0  0
   22.9970    9.1110   24.7490 N   0  0  0  0  0  0  0  0  0  0  0  0
   23.0220   12.1410   25.0180 C   0  0  0  0  0  0  0  0  0  0  0  0
   20.9020   10.6270   21.0050 C   0  0  0  0  0  0  0  0  0  0  0  0
   20.2720    9.4140   20.7470 C   0  0  0  0  0  0  0  0  0  0  0  0
   18.9690    9.3760   20.2600 C   0  0  0  0  0  0  0  0  0  0  0  0
   18.2800   10.5440   20.0210 C   0  0  0  0  0  0  0  0  0  0  0  0
   18.8920   11.7530   20.2590 C   0  0  0  0  0  0  0  0  0  0  0  0
   20.1950   11.7970   20.7440 C   0  0  0  0  0  0  0  0  0  0  0  0
   23.4880   10.6920   20.5300 C   0  0  0  0  0  0  0  0  0  0  0  0
   23.2110   10.7890   19.1730 C   0  0  0  0  0  0  0  0  0  0  0  0
   24.2350   10.8650   18.2430 C   0  0  0  0  0  0  0  0  0  0  0  0
   25.5500   10.8410   18.6560 C   0  0  0  0  0  0  0  0  0  0  0  0
   25.8710   10.7460   20.0070 C   0  0  0  0  0  0  0  0  0  0  0  0
   24.8260   10.6610   20.9430 C   0  0  0  0  0  0  0  0  0  0  0  0
    0.0000    0.0000    0.0000 H   0  0  0  0  0  0  0  0  0  0  0  0
    0.0000    0.0000    0.0000 H   0  0  0  0  0  0  0  0  0  0  0  0
    0.0000    0.0000    0.0000 H   0  0  0  0  0  0  0  0  0  0  0  0
    0.0000    0.0000    0.0000 H   0  0  0  0  0  0  0  0  0  0  0  0
    0.0000    0.0000    0.0000 H   0  0  0  0  0  0  0  0  0  0  0  0
    0.0000    0.0000    0.0000 H   0  0  0  0  0  0  0  0  0  0  0  0
    0.0000    0.0000    0.0000 H   0  0  0  0  0  0  0  0  0  0  0  0
    0.0000    0.0000    0.0000 H   0  0  0  0  0  0  0  0  0  0  0  0
    0.0000    0.0000    0.0000 H   0  0  0  0  0  0  0  0  0  0  0  0
    0.0000    0.0000    0.0000 H   0  0  0  0  0  0  0  0  0  0  0  0
    0.0000    0.0000    0.0000 H   0  0  0  0  0  0  0  0  0  0  0  0
    0.0000    0.0000    0.0000 H   0  0  0  0  0  0  0  0  0  0  0  0
    0.0000    0.0000    0.0000 H   0  0  0  0  0  0  0  0  0  0  0  0
    0.0000    0.0000    0.0000 H   0  0  0  0  0  0  0  0  0  0  0  0
   12.4424    5.2794    9.0851 N   0  0  0  0  0  0  0  0  0  0  0  0
   11.3691    4.9384    9.9908 C   0  0  0  0  0  0  0  0  0  0  0  0
   10.9477    6.2145   10.6914 C   0  0  0  0  0  0  0  0  0  0  0  0
    9.8858    6.0169   11.6567 N   0  0  0  0  0  0  0  0  0  0  0  0
    9.4094    7.3656   12.0197 C   0  0  0  0  0  0  0  0  0  0  0  0
   10.5858    5.5661   12.8863 C   0  0  0  0  0  0  0  0  0  0  0  0
   12.8235    4.5142    8.5326 H   0  0  0  0  0  0  0  0  0  0  0  0
   11.7646    4.1856   10.7176 H   0  0  0  0  0  0  0  0  0  0  0  0
   10.5541    4.5124    9.3449 H   0  0  0  0  0  0  0  0  0  0  0  0
   11.8738    6.5798   11.2213 H   0  0  0  0  0  0  0  0  0  0  0  0
   10.6396    6.9313    9.9210 H   0  0  0  0  0  0  0  0  0  0  0  0
    9.8209    8.1386   11.3543 H   0  0  0  0  0  0  0  0  0  0  0  0
    9.6196    7.6239   13.0668 H   0  0  0  0  0  0  0  0  0  0  0  0
    8.2862    7.3088   11.9534 H   0  0  0  0  0  0  0  0  0  0  0  0
   10.5370    4.4910   12.9467 H   0  0  0  0  0  0  0  0  0  0  0  0
   10.1431    6.0941   13.7917 H   0  0  0  0  0  0  0  0  0  0  0  0
   11.6653    5.8643   12.8383 H   0  0  0  0  0  0  0  0  0  0  0  0
  1  3  2  0
  1  4  1  0
  1  5  1  0
  2  4  1  0
  2  6  1  0
  4  9  1  0
  4 15  1  0
  5  6  1  0
  5  8  1  0
  6  7  2  3
  9 10  2  0
  9 14  1  0
 10 11  1  0
 11 12  2  0
 12 13  1  0
 13 14  2  0
 15 16  2  0
 15 20  1  0
 16 17  1  0
 17 18  2  0
 18 19  1  0
 19 20  2  0
  2 21  1  0
  7 22  1  0
  8 23  1  0
  8 24  1  0
  8 25  1  0
 10 26  1  0
 11 27  1  0
 12 28  1  0
 13 29  1  0
 14 30  1  0
 16 31  1  0
 17 32  1  0
 19 33  1  0
 20 34  1  0
 35 36  1  0
 36 37  1  0
 37 38  1  0
 38 39  1  0
 38 40  1  0
 35 41  1  0
 36 42  1  0
 36 43  1  0
 37 44  1  0
 37 45  1  0
 39 46  1  0
 39 47  1  0
 39 48  1  0
 40 49  1  0
 40 50  1  0
 40 51  1  0
 18 35  1  0
M  END
>  <attachment_point>  (458) 
32

>  <score>  (458) 
<NA>

$$$$
4djw
     RDKit          3D

 51 54  0  0  0  0  0  0  0  0999 V2000
   22.4950   11.8750   22.5810 C   0  0  0  0  0  0  0  0  0  0  0  0
   22.5380    9.4930   22.4640 N   0  0  0  0  0  0  0  0  0  0  0  0
   22.3600   13.0630   22.3480 O   0  0  0  0  0  0  0  0  0  0  0  0
   22.3390   10.6680   21.5610 C   0  0  0  0  0  0  0  0  0  0  0  0
   22.7860   11.3350   23.8120 N   0  0  0  0  0  0  0  0  0  0  0  0
   22.7800    9.9140   23.7010 C   0  0  0  0  0  0  0  0  0  0  0  0
   22.9970    9.1110   24.7490 N   0  0  0  0  0  0  0  0  0  0  0  0
   23.0220   12.1410   25.0180 C   0  0  0  0  0  0  0  0  0  0  0  0
   20.9020   10.6270   21.0050 C   0  0  0  0  0  0  0  0  0  0  0  0
   20.2720    9.4140   20.7470 C   0  0  0  0  0  0  0  0  0  0  0  0
   18.9690    9.3760   20.2600 C   0  0  0  0  0  0  0  0  0  0  0  0
   18.2800   10.5440   20.0210 C   0  0  0  0  0  0  0  0  0  0  0  0
   18.8920   11.7530   20.2590 C   0  0  0  0  0  0  0  0  0  0  0  0
   20.1950   11.7970   20.7440 C   0  0  0  0  0  0  0  0  0  0  0  0
   23.4880   10.6920   20.5300 C   0  0  0  0  0  0  0  0  0  0  0  0
   23.2110   10.7890   19.1730 C   0  0  0  0  0  0  0  0  0  0  0  0
   24.2350   10.8650   18.2430 C   0  0  0  0  0  0  0  0  0  0  0  0
   25.5500   10.8410   18.6560 C   0  0  0  0  0  0  0  0  0  0  0  0
   25.8710   10.7460   20.0070 C   0  0  0  0  0  0  0  0  0  0  0  0
   24.8260   10.6610   20.9430 C   0  0  0  0  0  0  0  0  0  0  0  0
    0.0000    0.0000    0.0000 H   0  0  0  0  0  0  0  0  0  0  0  0
    0.0000    0.0000    0.0000 H   0  0  0  0  0  0  0  0  0  0  0  0
    0.0000    0.0000    0.0000 H   0  0  0  0  0  0  0  0  0  0  0  0
    0.0000    0.0000    0.0000 H   0  0  0  0  0  0  0  0  0  0  0  0
    0.0000    0.0000    0.0000 H   0  0  0  0  0  0  0  0  0  0  0  0
    0.0000    0.0000    0.0000 H   0  0  0  0  0  0  0  0  0  0  0  0
    0.0000    0.0000    0.0000 H   0  0  0  0  0  0  0  0  0  0  0  0
    0.0000    0.0000    0.0000 H   0  0  0  0  0  0  0  0  0  0  0  0
    0.0000    0.0000    0.0000 H   0  0  0  0  0  0  0  0  0  0  0  0
    0.0000    0.0000    0.0000 H   0  0  0  0  0  0  0  0  0  0  0  0
    0.0000    0.0000    0.0000 H   0  0  0  0  0  0  0  0  0  0  0  0
    0.0000    0.0000    0.0000 H   0  0  0  0  0  0  0  0  0  0  0  0
    0.0000    0.0000    0.0000 H   0  0  0  0  0  0  0  0  0  0  0  0
    0.0000    0.0000    0.0000 H   0  0  0  0  0  0  0  0  0  0  0  0
   12.3990    5.2610    9.0535 N   0  0  0  0  0  0  0  0  0  0  0  0
   12.7552    4.7934    7.7975 C   0  0  0  0  0  0  0  0  0  0  0  0
   14.3577    4.8333    7.3782 S   0  0  0  0  0  0  0  0  0  0  0  0
   11.8673    4.2863    6.8362 N   0  0  0  0  0  0  0  0  0  0  0  0
   10.4865    4.2402    7.1479 C   0  0  0  0  0  0  0  0  0  0  0  0
    9.5934    5.2563    6.7926 C   0  0  0  0  0  0  0  0  0  0  0  0
    8.2626    5.1926    7.1077 C   0  0  0  0  0  0  0  0  0  0  0  0
    7.7617    4.1122    7.7916 C   0  0  0  0  0  0  0  0  0  0  0  0
    8.6338    3.0829    8.1583 C   0  0  0  0  0  0  0  0  0  0  0  0
    9.9925    3.1537    7.8338 C   0  0  0  0  0  0  0  0  0  0  0  0
   11.5313    5.3522    9.5458 H   0  0  0  0  0  0  0  0  0  0  0  0
   12.1940    3.9492    5.9119 H   0  0  0  0  0  0  0  0  0  0  0  0
   10.0407    6.0797    6.2568 H   0  0  0  0  0  0  0  0  0  0  0  0
    7.6135    5.9956    6.8143 H   0  0  0  0  0  0  0  0  0  0  0  0
    6.7208    4.0118    8.0642 H   0  0  0  0  0  0  0  0  0  0  0  0
    8.2854    2.2092    8.6995 H   0  0  0  0  0  0  0  0  0  0  0  0
   10.6325    2.3288    8.1403 H   0  0  0  0  0  0  0  0  0  0  0  0
  1  3  2  0
  1  4  1  0
  1  5  1  0
  2  4  1  0
  2  6  1  0
  4  9  1  0
  4 15  1  0
  5  6  1  0
  5  8  1  0
  6  7  2  3
  9 10  2  0
  9 14  1  0
 10 11  1  0
 11 12  2  0
 12 13  1  0
 13 14  2  0
 15 16  2  0
 15 20  1  0
 16 17  1  0
 17 18  2  0
 18 19  1  0
 19 20  2  0
  2 21  1  0
  7 22  1  0
  8 23  1  0
  8 24  1  0
  8 25  1  0
 10 26  1  0
 11 27  1  0
 12 28  1  0
 13 29  1  0
 14 30  1  0
 16 31  1  0
 17 32  1  0
 19 33  1  0
 20 34  1  0
 35 36  1  0
 36 37  2  0
 36 38  1  0
 38 39  1  0
 39 40  2  0
 40 41  1  0
 41 42  2  0
 42 43  1  0
 43 44  2  0
 44 39  1  0
 35 45  1  0
 38 46  1  0
 40 47  1  0
 41 48  1  0
 42 49  1  0
 43 50  1  0
 44 51  1  0
 18 35  1  0
M  END
>  <attachment_point>  (459) 
32

>  <score>  (459) 
<NA>

$$$$
4djw
     RDKit          3D

 51 54  0  0  0  0  0  0  0  0999 V2000
   22.4950   11.8750   22.5810 C   0  0  0  0  0  0  0  0  0  0  0  0
   22.5380    9.4930   22.4640 N   0  0  0  0  0  0  0  0  0  0  0  0
   22.3600   13.0630   22.3480 O   0  0  0  0  0  0  0  0  0  0  0  0
   22.3390   10.6680   21.5610 C   0  0  0  0  0  0  0  0  0  0  0  0
   22.7860   11.3350   23.8120 N   0  0  0  0  0  0  0  0  0  0  0  0
   22.7800    9.9140   23.7010 C   0  0  0  0  0  0  0  0  0  0  0  0
   22.9970    9.1110   24.7490 N   0  0  0  0  0  0  0  0  0  0  0  0
   23.0220   12.1410   25.0180 C   0  0  0  0  0  0  0  0  0  0  0  0
   20.9020   10.6270   21.0050 C   0  0  0  0  0  0  0  0  0  0  0  0
   20.2720    9.4140   20.7470 C   0  0  0  0  0  0  0  0  0  0  0  0
   18.9690    9.3760   20.2600 C   0  0  0  0  0  0  0  0  0  0  0  0
   18.2800   10.5440   20.0210 C   0  0  0  0  0  0  0  0  0  0  0  0
   18.8920   11.7530   20.2590 C   0  0  0  0  0  0  0  0  0  0  0  0
   20.1950   11.7970   20.7440 C   0  0  0  0  0  0  0  0  0  0  0  0
   23.4880   10.6920   20.5300 C   0  0  0  0  0  0  0  0  0  0  0  0
   23.2110   10.7890   19.1730 C   0  0  0  0  0  0  0  0  0  0  0  0
   24.2350   10.8650   18.2430 C   0  0  0  0  0  0  0  0  0  0  0  0
   25.5500   10.8410   18.6560 C   0  0  0  0  0  0  0  0  0  0  0  0
   25.8710   10.7460   20.0070 C   0  0  0  0  0  0  0  0  0  0  0  0
   24.8260   10.6610   20.9430 C   0  0  0  0  0  0  0  0  0  0  0  0
    0.0000    0.0000    0.0000 H   0  0  0  0  0  0  0  0  0  0  0  0
    0.0000    0.0000    0.0000 H   0  0  0  0  0  0  0  0  0  0  0  0
    0.0000    0.0000    0.0000 H   0  0  0  0  0  0  0  0  0  0  0  0
    0.0000    0.0000    0.0000 H   0  0  0  0  0  0  0  0  0  0  0  0
    0.0000    0.0000    0.0000 H   0  0  0  0  0  0  0  0  0  0  0  0
    0.0000    0.0000    0.0000 H   0  0  0  0  0  0  0  0  0  0  0  0
    0.0000    0.0000    0.0000 H   0  0  0  0  0  0  0  0  0  0  0  0
    0.0000    0.0000    0.0000 H   0  0  0  0  0  0  0  0  0  0  0  0
    0.0000    0.0000    0.0000 H   0  0  0  0  0  0  0  0  0  0  0  0
    0.0000    0.0000    0.0000 H   0  0  0  0  0  0  0  0  0  0  0  0
    0.0000    0.0000    0.0000 H   0  0  0  0  0  0  0  0  0  0  0  0
    0.0000    0.0000    0.0000 H   0  0  0  0  0  0  0  0  0  0  0  0
    0.0000    0.0000    0.0000 H   0  0  0  0  0  0  0  0  0  0  0  0
    0.0000    0.0000    0.0000 H   0  0  0  0  0  0  0  0  0  0  0  0
   12.4456    5.2807    9.0875 C   0  0  0  0  0  0  0  0  0  0  0  0
   13.0025    4.5720    7.9013 C   0  0  0  0  0  0  0  0  0  0  0  0
   13.2646    3.2174    7.9231 C   0  0  0  0  0  0  0  0  0  0  0  0
   13.7818    2.5672    6.8168 C   0  0  0  0  0  0  0  0  0  0  0  0
   14.0584    3.2411    5.6448 C   0  0  0  0  0  0  0  0  0  0  0  0
   14.6145    2.5189    4.4686 C   0  0  0  0  0  0  0  0  0  0  0  0
   13.5826    1.9362    3.7584 F   0  0  0  0  0  0  0  0  0  0  0  0
   15.5636    1.5977    4.8657 F   0  0  0  0  0  0  0  0  0  0  0  0
   15.2059    3.4858    3.6638 F   0  0  0  0  0  0  0  0  0  0  0  0
   13.7975    4.5969    5.6187 C   0  0  0  0  0  0  0  0  0  0  0  0
   13.2813    5.2407    6.7260 C   0  0  0  0  0  0  0  0  0  0  0  0
   11.9501    6.2009    8.7214 H   0  0  0  0  0  0  0  0  0  0  0  0
   11.7915    4.6371    9.6994 H   0  0  0  0  0  0  0  0  0  0  0  0
   13.0603    2.6463    8.8307 H   0  0  0  0  0  0  0  0  0  0  0  0
   13.9918    1.4980    6.8253 H   0  0  0  0  0  0  0  0  0  0  0  0
   14.0203    5.1256    4.6827 H   0  0  0  0  0  0  0  0  0  0  0  0
   13.0819    6.3066    6.6893 H   0  0  0  0  0  0  0  0  0  0  0  0
  1  3  2  0
  1  4  1  0
  1  5  1  0
  2  4  1  0
  2  6  1  0
  4  9  1  0
  4 15  1  0
  5  6  1  0
  5  8  1  0
  6  7  2  3
  9 10  2  0
  9 14  1  0
 10 11  1  0
 11 12  2  0
 12 13  1  0
 13 14  2  0
 15 16  2  0
 15 20  1  0
 16 17  1  0
 17 18  2  0
 18 19  1  0
 19 20  2  0
  2 21  1  0
  7 22  1  0
  8 23  1  0
  8 24  1  0
  8 25  1  0
 10 26  1  0
 11 27  1  0
 12 28  1  0
 13 29  1  0
 14 30  1  0
 16 31  1  0
 17 32  1  0
 19 33  1  0
 20 34  1  0
 35 36  1  0
 36 37  2  0
 37 38  1  0
 38 39  2  0
 39 40  1  0
 40 41  1  0
 40 42  1  0
 40 43  1  0
 39 44  1  0
 44 45  2  0
 45 36  1  0
 35 46  1  0
 35 47  1  0
 37 48  1  0
 38 49  1  0
 44 50  1  0
 45 51  1  0
 18 35  1  0
M  END
>  <attachment_point>  (460) 
32

>  <score>  (460) 
<NA>

$$$$
4djw
     RDKit          3D

 54 57  0  0  0  0  0  0  0  0999 V2000
   22.4950   11.8750   22.5810 C   0  0  0  0  0  0  0  0  0  0  0  0
   22.5380    9.4930   22.4640 N   0  0  0  0  0  0  0  0  0  0  0  0
   22.3600   13.0630   22.3480 O   0  0  0  0  0  0  0  0  0  0  0  0
   22.3390   10.6680   21.5610 C   0  0  0  0  0  0  0  0  0  0  0  0
   22.7860   11.3350   23.8120 N   0  0  0  0  0  0  0  0  0  0  0  0
   22.7800    9.9140   23.7010 C   0  0  0  0  0  0  0  0  0  0  0  0
   22.9970    9.1110   24.7490 N   0  0  0  0  0  0  0  0  0  0  0  0
   23.0220   12.1410   25.0180 C   0  0  0  0  0  0  0  0  0  0  0  0
   20.9020   10.6270   21.0050 C   0  0  0  0  0  0  0  0  0  0  0  0
   20.2720    9.4140   20.7470 C   0  0  0  0  0  0  0  0  0  0  0  0
   18.9690    9.3760   20.2600 C   0  0  0  0  0  0  0  0  0  0  0  0
   18.2800   10.5440   20.0210 C   0  0  0  0  0  0  0  0  0  0  0  0
   18.8920   11.7530   20.2590 C   0  0  0  0  0  0  0  0  0  0  0  0
   20.1950   11.7970   20.7440 C   0  0  0  0  0  0  0  0  0  0  0  0
   23.4880   10.6920   20.5300 C   0  0  0  0  0  0  0  0  0  0  0  0
   23.2110   10.7890   19.1730 C   0  0  0  0  0  0  0  0  0  0  0  0
   24.2350   10.8650   18.2430 C   0  0  0  0  0  0  0  0  0  0  0  0
   25.5500   10.8410   18.6560 C   0  0  0  0  0  0  0  0  0  0  0  0
   25.8710   10.7460   20.0070 C   0  0  0  0  0  0  0  0  0  0  0  0
   24.8260   10.6610   20.9430 C   0  0  0  0  0  0  0  0  0  0  0  0
    0.0000    0.0000    0.0000 H   0  0  0  0  0  0  0  0  0  0  0  0
    0.0000    0.0000    0.0000 H   0  0  0  0  0  0  0  0  0  0  0  0
    0.0000    0.0000    0.0000 H   0  0  0  0  0  0  0  0  0  0  0  0
    0.0000    0.0000    0.0000 H   0  0  0  0  0  0  0  0  0  0  0  0
    0.0000    0.0000    0.0000 H   0  0  0  0  0  0  0  0  0  0  0  0
    0.0000    0.0000    0.0000 H   0  0  0  0  0  0  0  0  0  0  0  0
    0.0000    0.0000    0.0000 H   0  0  0  0  0  0  0  0  0  0  0  0
    0.0000    0.0000    0.0000 H   0  0  0  0  0  0  0  0  0  0  0  0
    0.0000    0.0000    0.0000 H   0  0  0  0  0  0  0  0  0  0  0  0
    0.0000    0.0000    0.0000 H   0  0  0  0  0  0  0  0  0  0  0  0
    0.0000    0.0000    0.0000 H   0  0  0  0  0  0  0  0  0  0  0  0
    0.0000    0.0000    0.0000 H   0  0  0  0  0  0  0  0  0  0  0  0
    0.0000    0.0000    0.0000 H   0  0  0  0  0  0  0  0  0  0  0  0
    0.0000    0.0000    0.0000 H   0  0  0  0  0  0  0  0  0  0  0  0
   12.4429    5.2796    9.0855 N   0  0  0  0  0  0  0  0  0  0  0  0
   12.9298    4.2496    8.1856 C   0  0  0  0  0  0  0  0  0  0  0  0
   14.0297    3.5216    8.9192 C   0  0  0  0  0  0  0  0  0  0  0  0
   13.6002    3.0871   10.2700 C   0  0  0  0  0  0  0  0  0  0  0  0
   13.7610    1.6846   10.3283 O   0  0  0  0  0  0  0  0  0  0  0  0
   14.7148    1.3361   11.2826 C   0  0  0  0  0  0  0  0  0  0  0  0
   12.2088    3.3987   10.6563 C   0  0  0  0  0  0  0  0  0  0  0  0
   11.6088    4.6124   10.0678 C   0  0  0  0  0  0  0  0  0  0  0  0
   12.0784    3.5366    8.0492 H   0  0  0  0  0  0  0  0  0  0  0  0
   13.2749    4.6304    7.2259 H   0  0  0  0  0  0  0  0  0  0  0  0
   14.9010    4.2388    8.9510 H   0  0  0  0  0  0  0  0  0  0  0  0
   14.3659    2.6978    8.2562 H   0  0  0  0  0  0  0  0  0  0  0  0
   14.3007    3.5289   11.0241 H   0  0  0  0  0  0  0  0  0  0  0  0
   14.3286    1.7329   12.2630 H   0  0  0  0  0  0  0  0  0  0  0  0
   15.6902    1.8262   11.0815 H   0  0  0  0  0  0  0  0  0  0  0  0
   14.7753    0.2367   11.2864 H   0  0  0  0  0  0  0  0  0  0  0  0
   11.5384    2.5174   10.4390 H   0  0  0  0  0  0  0  0  0  0  0  0
   12.1712    3.4867   11.7823 H   0  0  0  0  0  0  0  0  0  0  0  0
   11.2974    5.3601   10.8550 H   0  0  0  0  0  0  0  0  0  0  0  0
   10.6446    4.3782    9.5323 H   0  0  0  0  0  0  0  0  0  0  0  0
  1  3  2  0
  1  4  1  0
  1  5  1  0
  2  4  1  0
  2  6  1  0
  4  9  1  0
  4 15  1  0
  5  6  1  0
  5  8  1  0
  6  7  2  3
  9 10  2  0
  9 14  1  0
 10 11  1  0
 11 12  2  0
 12 13  1  0
 13 14  2  0
 15 16  2  0
 15 20  1  0
 16 17  1  0
 17 18  2  0
 18 19  1  0
 19 20  2  0
  2 21  1  0
  7 22  1  0
  8 23  1  0
  8 24  1  0
  8 25  1  0
 10 26  1  0
 11 27  1  0
 12 28  1  0
 13 29  1  0
 14 30  1  0
 16 31  1  0
 17 32  1  0
 19 33  1  0
 20 34  1  0
 35 36  1  0
 36 37  1  0
 37 38  1  0
 38 39  1  0
 39 40  1  0
 38 41  1  0
 41 42  1  0
 42 35  1  0
 36 43  1  0
 36 44  1  0
 37 45  1  0
 37 46  1  0
 38 47  1  0
 40 48  1  0
 40 49  1  0
 40 50  1  0
 41 51  1  0
 41 52  1  0
 42 53  1  0
 42 54  1  0
 18 35  1  0
M  END
>  <attachment_point>  (461) 
32

>  <score>  (461) 
<NA>

$$$$
4djw
     RDKit          3D

 55 58  0  0  0  0  0  0  0  0999 V2000
   22.4950   11.8750   22.5810 C   0  0  0  0  0  0  0  0  0  0  0  0
   22.5380    9.4930   22.4640 N   0  0  0  0  0  0  0  0  0  0  0  0
   22.3600   13.0630   22.3480 O   0  0  0  0  0  0  0  0  0  0  0  0
   22.3390   10.6680   21.5610 C   0  0  0  0  0  0  0  0  0  0  0  0
   22.7860   11.3350   23.8120 N   0  0  0  0  0  0  0  0  0  0  0  0
   22.7800    9.9140   23.7010 C   0  0  0  0  0  0  0  0  0  0  0  0
   22.9970    9.1110   24.7490 N   0  0  0  0  0  0  0  0  0  0  0  0
   23.0220   12.1410   25.0180 C   0  0  0  0  0  0  0  0  0  0  0  0
   20.9020   10.6270   21.0050 C   0  0  0  0  0  0  0  0  0  0  0  0
   20.2720    9.4140   20.7470 C   0  0  0  0  0  0  0  0  0  0  0  0
   18.9690    9.3760   20.2600 C   0  0  0  0  0  0  0  0  0  0  0  0
   18.2800   10.5440   20.0210 C   0  0  0  0  0  0  0  0  0  0  0  0
   18.8920   11.7530   20.2590 C   0  0  0  0  0  0  0  0  0  0  0  0
   20.1950   11.7970   20.7440 C   0  0  0  0  0  0  0  0  0  0  0  0
   23.4880   10.6920   20.5300 C   0  0  0  0  0  0  0  0  0  0  0  0
   23.2110   10.7890   19.1730 C   0  0  0  0  0  0  0  0  0  0  0  0
   24.2350   10.8650   18.2430 C   0  0  0  0  0  0  0  0  0  0  0  0
   25.5500   10.8410   18.6560 C   0  0  0  0  0  0  0  0  0  0  0  0
   25.8710   10.7460   20.0070 C   0  0  0  0  0  0  0  0  0  0  0  0
   24.8260   10.6610   20.9430 C   0  0  0  0  0  0  0  0  0  0  0  0
    0.0000    0.0000    0.0000 H   0  0  0  0  0  0  0  0  0  0  0  0
    0.0000    0.0000    0.0000 H   0  0  0  0  0  0  0  0  0  0  0  0
    0.0000    0.0000    0.0000 H   0  0  0  0  0  0  0  0  0  0  0  0
    0.0000    0.0000    0.0000 H   0  0  0  0  0  0  0  0  0  0  0  0
    0.0000    0.0000    0.0000 H   0  0  0  0  0  0  0  0  0  0  0  0
    0.0000    0.0000    0.0000 H   0  0  0  0  0  0  0  0  0  0  0  0
    0.0000    0.0000    0.0000 H   0  0  0  0  0  0  0  0  0  0  0  0
    0.0000    0.0000    0.0000 H   0  0  0  0  0  0  0  0  0  0  0  0
    0.0000    0.0000    0.0000 H   0  0  0  0  0  0  0  0  0  0  0  0
    0.0000    0.0000    0.0000 H   0  0  0  0  0  0  0  0  0  0  0  0
    0.0000    0.0000    0.0000 H   0  0  0  0  0  0  0  0  0  0  0  0
    0.0000    0.0000    0.0000 H   0  0  0  0  0  0  0  0  0  0  0  0
    0.0000    0.0000    0.0000 H   0  0  0  0  0  0  0  0  0  0  0  0
    0.0000    0.0000    0.0000 H   0  0  0  0  0  0  0  0  0  0  0  0
   12.4042    5.2632    9.0573 C   0  0  0  0  0  0  0  0  0  0  0  0
   11.1642    5.6125    9.4077 C   0  0  0  0  0  0  0  0  0  0  0  0
   10.1233    5.1455    8.6114 C   0  0  0  0  0  0  0  0  0  0  0  0
   10.3555    4.3442    7.4902 C   0  0  0  0  0  0  0  0  0  0  0  0
    9.2734    3.9119    6.7388 O   0  0  0  0  0  0  0  0  0  0  0  0
    9.2962    3.1186    5.6036 C   0  0  0  0  0  0  0  0  0  0  0  0
    8.4354    1.8671    5.7889 C   0  0  0  0  0  0  0  0  0  0  0  0
    8.6094    3.9454    4.5026 C   0  0  0  0  0  0  0  0  0  0  0  0
   11.6551    4.0118    7.1714 C   0  0  0  0  0  0  0  0  0  0  0  0
   12.7066    4.4908    7.9862 C   0  0  0  0  0  0  0  0  0  0  0  0
   10.9018    6.2344   10.2675 H   0  0  0  0  0  0  0  0  0  0  0  0
    9.0932    5.3793    8.8214 H   0  0  0  0  0  0  0  0  0  0  0  0
   10.3069    2.8271    5.3085 H   0  0  0  0  0  0  0  0  0  0  0  0
    8.6271    1.4921    6.8007 H   0  0  0  0  0  0  0  0  0  0  0  0
    8.7585    1.1587    4.9847 H   0  0  0  0  0  0  0  0  0  0  0  0
    7.3748    2.0747    5.6189 H   0  0  0  0  0  0  0  0  0  0  0  0
    8.9477    3.5361    3.5467 H   0  0  0  0  0  0  0  0  0  0  0  0
    8.9969    4.9886    4.6408 H   0  0  0  0  0  0  0  0  0  0  0  0
    7.5276    3.8645    4.6885 H   0  0  0  0  0  0  0  0  0  0  0  0
   11.9030    3.3969    6.3196 H   0  0  0  0  0  0  0  0  0  0  0  0
   13.7222    4.2431    7.7544 H   0  0  0  0  0  0  0  0  0  0  0  0
  1  3  2  0
  1  4  1  0
  1  5  1  0
  2  4  1  0
  2  6  1  0
  4  9  1  0
  4 15  1  0
  5  6  1  0
  5  8  1  0
  6  7  2  3
  9 10  2  0
  9 14  1  0
 10 11  1  0
 11 12  2  0
 12 13  1  0
 13 14  2  0
 15 16  2  0
 15 20  1  0
 16 17  1  0
 17 18  2  0
 18 19  1  0
 19 20  2  0
  2 21  1  0
  7 22  1  0
  8 23  1  0
  8 24  1  0
  8 25  1  0
 10 26  1  0
 11 27  1  0
 12 28  1  0
 13 29  1  0
 14 30  1  0
 16 31  1  0
 17 32  1  0
 19 33  1  0
 20 34  1  0
 35 36  2  0
 36 37  1  0
 37 38  2  0
 38 39  1  0
 39 40  1  0
 40 41  1  0
 40 42  1  0
 38 43  1  0
 43 44  2  0
 44 35  1  0
 36 45  1  0
 37 46  1  0
 40 47  1  0
 41 48  1  0
 41 49  1  0
 41 50  1  0
 42 51  1  0
 42 52  1  0
 42 53  1  0
 43 54  1  0
 44 55  1  0
 18 35  1  0
M  END
>  <attachment_point>  (462) 
32

>  <score>  (462) 
<NA>

$$$$
4djw
     RDKit          3D

 46 49  0  0  0  0  0  0  0  0999 V2000
   22.4950   11.8750   22.5810 C   0  0  0  0  0  0  0  0  0  0  0  0
   22.5380    9.4930   22.4640 N   0  0  0  0  0  0  0  0  0  0  0  0
   22.3600   13.0630   22.3480 O   0  0  0  0  0  0  0  0  0  0  0  0
   22.3390   10.6680   21.5610 C   0  0  0  0  0  0  0  0  0  0  0  0
   22.7860   11.3350   23.8120 N   0  0  0  0  0  0  0  0  0  0  0  0
   22.7800    9.9140   23.7010 C   0  0  0  0  0  0  0  0  0  0  0  0
   22.9970    9.1110   24.7490 N   0  0  0  0  0  0  0  0  0  0  0  0
   23.0220   12.1410   25.0180 C   0  0  0  0  0  0  0  0  0  0  0  0
   20.9020   10.6270   21.0050 C   0  0  0  0  0  0  0  0  0  0  0  0
   20.2720    9.4140   20.7470 C   0  0  0  0  0  0  0  0  0  0  0  0
   18.9690    9.3760   20.2600 C   0  0  0  0  0  0  0  0  0  0  0  0
   18.2800   10.5440   20.0210 C   0  0  0  0  0  0  0  0  0  0  0  0
   18.8920   11.7530   20.2590 C   0  0  0  0  0  0  0  0  0  0  0  0
   20.1950   11.7970   20.7440 C   0  0  0  0  0  0  0  0  0  0  0  0
   23.4880   10.6920   20.5300 C   0  0  0  0  0  0  0  0  0  0  0  0
   23.2110   10.7890   19.1730 C   0  0  0  0  0  0  0  0  0  0  0  0
   24.2350   10.8650   18.2430 C   0  0  0  0  0  0  0  0  0  0  0  0
   25.5500   10.8410   18.6560 C   0  0  0  0  0  0  0  0  0  0  0  0
   25.8710   10.7460   20.0070 C   0  0  0  0  0  0  0  0  0  0  0  0
   24.8260   10.6610   20.9430 C   0  0  0  0  0  0  0  0  0  0  0  0
    0.0000    0.0000    0.0000 H   0  0  0  0  0  0  0  0  0  0  0  0
    0.0000    0.0000    0.0000 H   0  0  0  0  0  0  0  0  0  0  0  0
    0.0000    0.0000    0.0000 H   0  0  0  0  0  0  0  0  0  0  0  0
    0.0000    0.0000    0.0000 H   0  0  0  0  0  0  0  0  0  0  0  0
    0.0000    0.0000    0.0000 H   0  0  0  0  0  0  0  0  0  0  0  0
    0.0000    0.0000    0.0000 H   0  0  0  0  0  0  0  0  0  0  0  0
    0.0000    0.0000    0.0000 H   0  0  0  0  0  0  0  0  0  0  0  0
    0.0000    0.0000    0.0000 H   0  0  0  0  0  0  0  0  0  0  0  0
    0.0000    0.0000    0.0000 H   0  0  0  0  0  0  0  0  0  0  0  0
    0.0000    0.0000    0.0000 H   0  0  0  0  0  0  0  0  0  0  0  0
    0.0000    0.0000    0.0000 H   0  0  0  0  0  0  0  0  0  0  0  0
    0.0000    0.0000    0.0000 H   0  0  0  0  0  0  0  0  0  0  0  0
    0.0000    0.0000    0.0000 H   0  0  0  0  0  0  0  0  0  0  0  0
    0.0000    0.0000    0.0000 H   0  0  0  0  0  0  0  0  0  0  0  0
   12.4622    5.2878    9.0996 C   0  0  2  0  0  0  0  0  0  0  0  0
   13.0006    5.1677    7.6665 C   0  0  0  0  0  0  0  0  0  0  0  0
   13.1958    6.6672    7.3994 C   0  0  0  0  0  0  0  0  0  0  0  0
   12.1375    7.3050    7.9741 O   0  0  0  0  0  0  0  0  0  0  0  0
   11.5345    6.4814    8.8881 C   0  0  0  0  0  0  0  0  0  0  0  0
   11.9381    4.3915    9.4245 H   0  0  0  0  0  0  0  0  0  0  0  0
   12.2203    4.8153    6.9807 H   0  0  0  0  0  0  0  0  0  0  0  0
   13.9363    4.6195    7.6170 H   0  0  0  0  0  0  0  0  0  0  0  0
   14.1261    6.9309    7.9783 H   0  0  0  0  0  0  0  0  0  0  0  0
   13.3151    6.7861    6.3273 H   0  0  0  0  0  0  0  0  0  0  0  0
   10.5587    6.1140    8.4680 H   0  0  0  0  0  0  0  0  0  0  0  0
   11.3985    6.9447    9.8872 H   0  0  0  0  0  0  0  0  0  0  0  0
  1  3  2  0
  1  4  1  0
  1  5  1  0
  2  4  1  0
  2  6  1  0
  4  9  1  0
  4 15  1  0
  5  6  1  0
  5  8  1  0
  6  7  2  3
  9 10  2  0
  9 14  1  0
 10 11  1  0
 11 12  2  0
 12 13  1  0
 13 14  2  0
 15 16  2  0
 15 20  1  0
 16 17  1  0
 17 18  2  0
 18 19  1  0
 19 20  2  0
  2 21  1  0
  7 22  1  0
  8 23  1  0
  8 24  1  0
  8 25  1  0
 10 26  1  0
 11 27  1  0
 12 28  1  0
 13 29  1  0
 14 30  1  0
 16 31  1  0
 17 32  1  0
 19 33  1  0
 20 34  1  0
 35 36  1  0
 36 37  1  0
 37 38  1  0
 38 39  1  0
 39 35  1  0
 35 40  1  6
 36 41  1  0
 36 42  1  0
 37 43  1  0
 37 44  1  0
 39 45  1  0
 39 46  1  0
 18 35  1  0
M  END
>  <attachment_point>  (463) 
32

>  <score>  (463) 
<NA>

$$$$
4djw
     RDKit          3D

 45 47  0  0  0  0  0  0  0  0999 V2000
   22.4950   11.8750   22.5810 C   0  0  0  0  0  0  0  0  0  0  0  0
   22.5380    9.4930   22.4640 N   0  0  0  0  0  0  0  0  0  0  0  0
   22.3600   13.0630   22.3480 O   0  0  0  0  0  0  0  0  0  0  0  0
   22.3390   10.6680   21.5610 C   0  0  0  0  0  0  0  0  0  0  0  0
   22.7860   11.3350   23.8120 N   0  0  0  0  0  0  0  0  0  0  0  0
   22.7800    9.9140   23.7010 C   0  0  0  0  0  0  0  0  0  0  0  0
   22.9970    9.1110   24.7490 N   0  0  0  0  0  0  0  0  0  0  0  0
   23.0220   12.1410   25.0180 C   0  0  0  0  0  0  0  0  0  0  0  0
   20.9020   10.6270   21.0050 C   0  0  0  0  0  0  0  0  0  0  0  0
   20.2720    9.4140   20.7470 C   0  0  0  0  0  0  0  0  0  0  0  0
   18.9690    9.3760   20.2600 C   0  0  0  0  0  0  0  0  0  0  0  0
   18.2800   10.5440   20.0210 C   0  0  0  0  0  0  0  0  0  0  0  0
   18.8920   11.7530   20.2590 C   0  0  0  0  0  0  0  0  0  0  0  0
   20.1950   11.7970   20.7440 C   0  0  0  0  0  0  0  0  0  0  0  0
   23.4880   10.6920   20.5300 C   0  0  0  0  0  0  0  0  0  0  0  0
   23.2110   10.7890   19.1730 C   0  0  0  0  0  0  0  0  0  0  0  0
   24.2350   10.8650   18.2430 C   0  0  0  0  0  0  0  0  0  0  0  0
   25.5500   10.8410   18.6560 C   0  0  0  0  0  0  0  0  0  0  0  0
   25.8710   10.7460   20.0070 C   0  0  0  0  0  0  0  0  0  0  0  0
   24.8260   10.6610   20.9430 C   0  0  0  0  0  0  0  0  0  0  0  0
    0.0000    0.0000    0.0000 H   0  0  0  0  0  0  0  0  0  0  0  0
    0.0000    0.0000    0.0000 H   0  0  0  0  0  0  0  0  0  0  0  0
    0.0000    0.0000    0.0000 H   0  0  0  0  0  0  0  0  0  0  0  0
    0.0000    0.0000    0.0000 H   0  0  0  0  0  0  0  0  0  0  0  0
    0.0000    0.0000    0.0000 H   0  0  0  0  0  0  0  0  0  0  0  0
    0.0000    0.0000    0.0000 H   0  0  0  0  0  0  0  0  0  0  0  0
    0.0000    0.0000    0.0000 H   0  0  0  0  0  0  0  0  0  0  0  0
    0.0000    0.0000    0.0000 H   0  0  0  0  0  0  0  0  0  0  0  0
    0.0000    0.0000    0.0000 H   0  0  0  0  0  0  0  0  0  0  0  0
    0.0000    0.0000    0.0000 H   0  0  0  0  0  0  0  0  0  0  0  0
    0.0000    0.0000    0.0000 H   0  0  0  0  0  0  0  0  0  0  0  0
    0.0000    0.0000    0.0000 H   0  0  0  0  0  0  0  0  0  0  0  0
    0.0000    0.0000    0.0000 H   0  0  0  0  0  0  0  0  0  0  0  0
    0.0000    0.0000    0.0000 H   0  0  0  0  0  0  0  0  0  0  0  0
   12.2911    5.2152    8.9746 C   0  0  0  0  0  0  0  0  0  0  0  0
   12.4777    6.1498    8.0313 O   0  0  0  0  0  0  0  0  0  0  0  0
   13.7222    6.1284    7.4005 C   0  0  0  0  0  0  0  0  0  0  0  0
   14.7675    6.3413    8.4724 C   0  0  0  0  0  0  0  0  0  0  0  0
   12.8069    4.2853    8.9185 H   0  0  0  0  0  0  0  0  0  0  0  0
   11.7061    5.4529    9.8458 H   0  0  0  0  0  0  0  0  0  0  0  0
   13.8265    5.1246    6.9151 H   0  0  0  0  0  0  0  0  0  0  0  0
   13.7374    6.8972    6.6234 H   0  0  0  0  0  0  0  0  0  0  0  0
   15.7278    6.6968    8.0591 H   0  0  0  0  0  0  0  0  0  0  0  0
   14.9357    5.3991    9.0272 H   0  0  0  0  0  0  0  0  0  0  0  0
   14.4179    7.1126    9.1798 H   0  0  0  0  0  0  0  0  0  0  0  0
  1  3  2  0
  1  4  1  0
  1  5  1  0
  2  4  1  0
  2  6  1  0
  4  9  1  0
  4 15  1  0
  5  6  1  0
  5  8  1  0
  6  7  2  3
  9 10  2  0
  9 14  1  0
 10 11  1  0
 11 12  2  0
 12 13  1  0
 13 14  2  0
 15 16  2  0
 15 20  1  0
 16 17  1  0
 17 18  2  0
 18 19  1  0
 19 20  2  0
  2 21  1  0
  7 22  1  0
  8 23  1  0
  8 24  1  0
  8 25  1  0
 10 26  1  0
 11 27  1  0
 12 28  1  0
 13 29  1  0
 14 30  1  0
 16 31  1  0
 17 32  1  0
 19 33  1  0
 20 34  1  0
 35 36  1  0
 36 37  1  0
 37 38  1  0
 35 39  1  0
 35 40  1  0
 37 41  1  0
 37 42  1  0
 38 43  1  0
 38 44  1  0
 38 45  1  0
 18 35  1  0
M  END
>  <attachment_point>  (464) 
32

>  <score>  (464) 
<NA>

$$$$
4djw
     RDKit          3D

 43 46  0  0  0  0  0  0  0  0999 V2000
   22.4950   11.8750   22.5810 C   0  0  0  0  0  0  0  0  0  0  0  0
   22.5380    9.4930   22.4640 N   0  0  0  0  0  0  0  0  0  0  0  0
   22.3600   13.0630   22.3480 O   0  0  0  0  0  0  0  0  0  0  0  0
   22.3390   10.6680   21.5610 C   0  0  0  0  0  0  0  0  0  0  0  0
   22.7860   11.3350   23.8120 N   0  0  0  0  0  0  0  0  0  0  0  0
   22.7800    9.9140   23.7010 C   0  0  0  0  0  0  0  0  0  0  0  0
   22.9970    9.1110   24.7490 N   0  0  0  0  0  0  0  0  0  0  0  0
   23.0220   12.1410   25.0180 C   0  0  0  0  0  0  0  0  0  0  0  0
   20.9020   10.6270   21.0050 C   0  0  0  0  0  0  0  0  0  0  0  0
   20.2720    9.4140   20.7470 C   0  0  0  0  0  0  0  0  0  0  0  0
   18.9690    9.3760   20.2600 C   0  0  0  0  0  0  0  0  0  0  0  0
   18.2800   10.5440   20.0210 C   0  0  0  0  0  0  0  0  0  0  0  0
   18.8920   11.7530   20.2590 C   0  0  0  0  0  0  0  0  0  0  0  0
   20.1950   11.7970   20.7440 C   0  0  0  0  0  0  0  0  0  0  0  0
   23.4880   10.6920   20.5300 C   0  0  0  0  0  0  0  0  0  0  0  0
   23.2110   10.7890   19.1730 C   0  0  0  0  0  0  0  0  0  0  0  0
   24.2350   10.8650   18.2430 C   0  0  0  0  0  0  0  0  0  0  0  0
   25.5500   10.8410   18.6560 C   0  0  0  0  0  0  0  0  0  0  0  0
   25.8710   10.7460   20.0070 C   0  0  0  0  0  0  0  0  0  0  0  0
   24.8260   10.6610   20.9430 C   0  0  0  0  0  0  0  0  0  0  0  0
    0.0000    0.0000    0.0000 H   0  0  0  0  0  0  0  0  0  0  0  0
    0.0000    0.0000    0.0000 H   0  0  0  0  0  0  0  0  0  0  0  0
    0.0000    0.0000    0.0000 H   0  0  0  0  0  0  0  0  0  0  0  0
    0.0000    0.0000    0.0000 H   0  0  0  0  0  0  0  0  0  0  0  0
    0.0000    0.0000    0.0000 H   0  0  0  0  0  0  0  0  0  0  0  0
    0.0000    0.0000    0.0000 H   0  0  0  0  0  0  0  0  0  0  0  0
    0.0000    0.0000    0.0000 H   0  0  0  0  0  0  0  0  0  0  0  0
    0.0000    0.0000    0.0000 H   0  0  0  0  0  0  0  0  0  0  0  0
    0.0000    0.0000    0.0000 H   0  0  0  0  0  0  0  0  0  0  0  0
    0.0000    0.0000    0.0000 H   0  0  0  0  0  0  0  0  0  0  0  0
    0.0000    0.0000    0.0000 H   0  0  0  0  0  0  0  0  0  0  0  0
    0.0000    0.0000    0.0000 H   0  0  0  0  0  0  0  0  0  0  0  0
    0.0000    0.0000    0.0000 H   0  0  0  0  0  0  0  0  0  0  0  0
    0.0000    0.0000    0.0000 H   0  0  0  0  0  0  0  0  0  0  0  0
   12.3479    5.2393    9.0161 N   0  0  0  0  0  0  0  0  0  0  0  0
   12.0506    3.9706    9.4517 C   0  0  0  0  0  0  0  0  0  0  0  0
   11.1241    3.1503    9.0193 N   0  0  0  0  0  0  0  0  0  0  0  0
   10.9606    1.9780    9.5300 C   0  0  0  0  0  0  0  0  0  0  0  0
   11.7907    1.6026   10.5519 C   0  0  0  0  0  0  0  0  0  0  0  0
   12.7692    2.9938   10.7087 S   0  0  0  0  0  0  0  0  0  0  0  0
   12.1822    5.9527    8.4474 H   0  0  0  0  0  0  0  0  0  0  0  0
   10.1767    1.2835    9.1644 H   0  0  0  0  0  0  0  0  0  0  0  0
   11.7837    0.6532   11.0873 H   0  0  0  0  0  0  0  0  0  0  0  0
  1  3  2  0
  1  4  1  0
  1  5  1  0
  2  4  1  0
  2  6  1  0
  4  9  1  0
  4 15  1  0
  5  6  1  0
  5  8  1  0
  6  7  2  3
  9 10  2  0
  9 14  1  0
 10 11  1  0
 11 12  2  0
 12 13  1  0
 13 14  2  0
 15 16  2  0
 15 20  1  0
 16 17  1  0
 17 18  2  0
 18 19  1  0
 19 20  2  0
  2 21  1  0
  7 22  1  0
  8 23  1  0
  8 24  1  0
  8 25  1  0
 10 26  1  0
 11 27  1  0
 12 28  1  0
 13 29  1  0
 14 30  1  0
 16 31  1  0
 17 32  1  0
 19 33  1  0
 20 34  1  0
 35 36  1  0
 36 37  2  0
 37 38  1  0
 38 39  2  0
 39 40  1  0
 40 36  1  0
 35 41  1  0
 38 42  1  0
 39 43  1  0
 18 35  1  0
M  END
>  <attachment_point>  (465) 
32

>  <score>  (465) 
<NA>

$$$$
4djw
     RDKit          3D

 51 54  0  0  0  0  0  0  0  0999 V2000
   22.4950   11.8750   22.5810 C   0  0  0  0  0  0  0  0  0  0  0  0
   22.5380    9.4930   22.4640 N   0  0  0  0  0  0  0  0  0  0  0  0
   22.3600   13.0630   22.3480 O   0  0  0  0  0  0  0  0  0  0  0  0
   22.3390   10.6680   21.5610 C   0  0  0  0  0  0  0  0  0  0  0  0
   22.7860   11.3350   23.8120 N   0  0  0  0  0  0  0  0  0  0  0  0
   22.7800    9.9140   23.7010 C   0  0  0  0  0  0  0  0  0  0  0  0
   22.9970    9.1110   24.7490 N   0  0  0  0  0  0  0  0  0  0  0  0
   23.0220   12.1410   25.0180 C   0  0  0  0  0  0  0  0  0  0  0  0
   20.9020   10.6270   21.0050 C   0  0  0  0  0  0  0  0  0  0  0  0
   20.2720    9.4140   20.7470 C   0  0  0  0  0  0  0  0  0  0  0  0
   18.9690    9.3760   20.2600 C   0  0  0  0  0  0  0  0  0  0  0  0
   18.2800   10.5440   20.0210 C   0  0  0  0  0  0  0  0  0  0  0  0
   18.8920   11.7530   20.2590 C   0  0  0  0  0  0  0  0  0  0  0  0
   20.1950   11.7970   20.7440 C   0  0  0  0  0  0  0  0  0  0  0  0
   23.4880   10.6920   20.5300 C   0  0  0  0  0  0  0  0  0  0  0  0
   23.2110   10.7890   19.1730 C   0  0  0  0  0  0  0  0  0  0  0  0
   24.2350   10.8650   18.2430 C   0  0  0  0  0  0  0  0  0  0  0  0
   25.5500   10.8410   18.6560 C   0  0  0  0  0  0  0  0  0  0  0  0
   25.8710   10.7460   20.0070 C   0  0  0  0  0  0  0  0  0  0  0  0
   24.8260   10.6610   20.9430 C   0  0  0  0  0  0  0  0  0  0  0  0
    0.0000    0.0000    0.0000 H   0  0  0  0  0  0  0  0  0  0  0  0
    0.0000    0.0000    0.0000 H   0  0  0  0  0  0  0  0  0  0  0  0
    0.0000    0.0000    0.0000 H   0  0  0  0  0  0  0  0  0  0  0  0
    0.0000    0.0000    0.0000 H   0  0  0  0  0  0  0  0  0  0  0  0
    0.0000    0.0000    0.0000 H   0  0  0  0  0  0  0  0  0  0  0  0
    0.0000    0.0000    0.0000 H   0  0  0  0  0  0  0  0  0  0  0  0
    0.0000    0.0000    0.0000 H   0  0  0  0  0  0  0  0  0  0  0  0
    0.0000    0.0000    0.0000 H   0  0  0  0  0  0  0  0  0  0  0  0
    0.0000    0.0000    0.0000 H   0  0  0  0  0  0  0  0  0  0  0  0
    0.0000    0.0000    0.0000 H   0  0  0  0  0  0  0  0  0  0  0  0
    0.0000    0.0000    0.0000 H   0  0  0  0  0  0  0  0  0  0  0  0
    0.0000    0.0000    0.0000 H   0  0  0  0  0  0  0  0  0  0  0  0
    0.0000    0.0000    0.0000 H   0  0  0  0  0  0  0  0  0  0  0  0
    0.0000    0.0000    0.0000 H   0  0  0  0  0  0  0  0  0  0  0  0
   12.3617    5.2451    9.0262 N   0  0  0  0  0  0  0  0  0  0  0  0
   11.6061    4.3273    9.6937 C   0  0  0  0  0  0  0  0  0  0  0  0
   11.8337    3.9229   10.8828 O   0  0  0  0  0  0  0  0  0  0  0  0
   10.4460    3.7328    9.0552 N   0  0  0  0  0  0  0  0  0  0  0  0
    9.6313    2.7844    9.6911 C   0  0  0  0  0  0  0  0  0  0  0  0
    8.5456    3.2350   10.4305 C   0  0  0  0  0  0  0  0  0  0  0  0
    7.6878    2.3774   11.0916 C   0  0  0  0  0  0  0  0  0  0  0  0
    7.9173    1.0382   11.0140 C   0  0  0  0  0  0  0  0  0  0  0  0
    6.8205   -0.0362   11.8579 Cl  0  0  0  0  0  0  0  0  0  0  0  0
    8.9939    0.5735   10.2821 C   0  0  0  0  0  0  0  0  0  0  0  0
    9.8349    1.4250    9.6333 C   0  0  0  0  0  0  0  0  0  0  0  0
   12.3364    5.6474    8.1647 H   0  0  0  0  0  0  0  0  0  0  0  0
   10.2761    4.0730    8.0893 H   0  0  0  0  0  0  0  0  0  0  0  0
    8.3712    4.3059   10.4860 H   0  0  0  0  0  0  0  0  0  0  0  0
    6.8567    2.8184   11.6515 H   0  0  0  0  0  0  0  0  0  0  0  0
    9.1323   -0.5053   10.2526 H   0  0  0  0  0  0  0  0  0  0  0  0
   10.6709    1.0707    9.0644 H   0  0  0  0  0  0  0  0  0  0  0  0
  1  3  2  0
  1  4  1  0
  1  5  1  0
  2  4  1  0
  2  6  1  0
  4  9  1  0
  4 15  1  0
  5  6  1  0
  5  8  1  0
  6  7  2  3
  9 10  2  0
  9 14  1  0
 10 11  1  0
 11 12  2  0
 12 13  1  0
 13 14  2  0
 15 16  2  0
 15 20  1  0
 16 17  1  0
 17 18  2  0
 18 19  1  0
 19 20  2  0
  2 21  1  0
  7 22  1  0
  8 23  1  0
  8 24  1  0
  8 25  1  0
 10 26  1  0
 11 27  1  0
 12 28  1  0
 13 29  1  0
 14 30  1  0
 16 31  1  0
 17 32  1  0
 19 33  1  0
 20 34  1  0
 35 36  1  0
 36 37  2  0
 36 38  1  0
 38 39  1  0
 39 40  2  0
 40 41  1  0
 41 42  2  0
 42 43  1  0
 42 44  1  0
 44 45  2  0
 45 39  1  0
 35 46  1  0
 38 47  1  0
 40 48  1  0
 41 49  1  0
 44 50  1  0
 45 51  1  0
 18 35  1  0
M  END
>  <attachment_point>  (466) 
32

>  <score>  (466) 
<NA>

$$$$
4djw
     RDKit          3D

 48 51  0  0  0  0  0  0  0  0999 V2000
   22.4950   11.8750   22.5810 C   0  0  0  0  0  0  0  0  0  0  0  0
   22.5380    9.4930   22.4640 N   0  0  0  0  0  0  0  0  0  0  0  0
   22.3600   13.0630   22.3480 O   0  0  0  0  0  0  0  0  0  0  0  0
   22.3390   10.6680   21.5610 C   0  0  0  0  0  0  0  0  0  0  0  0
   22.7860   11.3350   23.8120 N   0  0  0  0  0  0  0  0  0  0  0  0
   22.7800    9.9140   23.7010 C   0  0  0  0  0  0  0  0  0  0  0  0
   22.9970    9.1110   24.7490 N   0  0  0  0  0  0  0  0  0  0  0  0
   23.0220   12.1410   25.0180 C   0  0  0  0  0  0  0  0  0  0  0  0
   20.9020   10.6270   21.0050 C   0  0  0  0  0  0  0  0  0  0  0  0
   20.2720    9.4140   20.7470 C   0  0  0  0  0  0  0  0  0  0  0  0
   18.9690    9.3760   20.2600 C   0  0  0  0  0  0  0  0  0  0  0  0
   18.2800   10.5440   20.0210 C   0  0  0  0  0  0  0  0  0  0  0  0
   18.8920   11.7530   20.2590 C   0  0  0  0  0  0  0  0  0  0  0  0
   20.1950   11.7970   20.7440 C   0  0  0  0  0  0  0  0  0  0  0  0
   23.4880   10.6920   20.5300 C   0  0  0  0  0  0  0  0  0  0  0  0
   23.2110   10.7890   19.1730 C   0  0  0  0  0  0  0  0  0  0  0  0
   24.2350   10.8650   18.2430 C   0  0  0  0  0  0  0  0  0  0  0  0
   25.5500   10.8410   18.6560 C   0  0  0  0  0  0  0  0  0  0  0  0
   25.8710   10.7460   20.0070 C   0  0  0  0  0  0  0  0  0  0  0  0
   24.8260   10.6610   20.9430 C   0  0  0  0  0  0  0  0  0  0  0  0
    0.0000    0.0000    0.0000 H   0  0  0  0  0  0  0  0  0  0  0  0
    0.0000    0.0000    0.0000 H   0  0  0  0  0  0  0  0  0  0  0  0
    0.0000    0.0000    0.0000 H   0  0  0  0  0  0  0  0  0  0  0  0
    0.0000    0.0000    0.0000 H   0  0  0  0  0  0  0  0  0  0  0  0
    0.0000    0.0000    0.0000 H   0  0  0  0  0  0  0  0  0  0  0  0
    0.0000    0.0000    0.0000 H   0  0  0  0  0  0  0  0  0  0  0  0
    0.0000    0.0000    0.0000 H   0  0  0  0  0  0  0  0  0  0  0  0
    0.0000    0.0000    0.0000 H   0  0  0  0  0  0  0  0  0  0  0  0
    0.0000    0.0000    0.0000 H   0  0  0  0  0  0  0  0  0  0  0  0
    0.0000    0.0000    0.0000 H   0  0  0  0  0  0  0  0  0  0  0  0
    0.0000    0.0000    0.0000 H   0  0  0  0  0  0  0  0  0  0  0  0
    0.0000    0.0000    0.0000 H   0  0  0  0  0  0  0  0  0  0  0  0
    0.0000    0.0000    0.0000 H   0  0  0  0  0  0  0  0  0  0  0  0
    0.0000    0.0000    0.0000 H   0  0  0  0  0  0  0  0  0  0  0  0
   12.4326    5.2752    9.0780 C   0  0  0  0  0  0  0  0  0  0  0  0
   12.0966    6.3621    8.1328 C   0  0  0  0  0  0  0  0  0  0  0  0
   12.7262    6.3924    6.9067 C   0  0  0  0  0  0  0  0  0  0  0  0
   12.3968    7.4156    6.0420 C   0  0  0  0  0  0  0  0  0  0  0  0
   11.4595    8.3735    6.4130 C   0  0  0  0  0  0  0  0  0  0  0  0
   11.0283    9.6870    5.3182 Cl  0  0  0  0  0  0  0  0  0  0  0  0
   10.8417    8.3268    7.6407 C   0  0  0  0  0  0  0  0  0  0  0  0
    9.6614    9.5635    8.0639 Cl  0  0  0  0  0  0  0  0  0  0  0  0
   11.1620    7.3091    8.5148 C   0  0  0  0  0  0  0  0  0  0  0  0
   12.8335    4.4260    8.5267 H   0  0  0  0  0  0  0  0  0  0  0  0
   11.5937    5.0300    9.7615 H   0  0  0  0  0  0  0  0  0  0  0  0
   13.4568    5.6567    6.6017 H   0  0  0  0  0  0  0  0  0  0  0  0
   12.8687    7.4773    5.0663 H   0  0  0  0  0  0  0  0  0  0  0  0
   10.6706    7.2828    9.4758 H   0  0  0  0  0  0  0  0  0  0  0  0
  1  3  2  0
  1  4  1  0
  1  5  1  0
  2  4  1  0
  2  6  1  0
  4  9  1  0
  4 15  1  0
  5  6  1  0
  5  8  1  0
  6  7  2  3
  9 10  2  0
  9 14  1  0
 10 11  1  0
 11 12  2  0
 12 13  1  0
 13 14  2  0
 15 16  2  0
 15 20  1  0
 16 17  1  0
 17 18  2  0
 18 19  1  0
 19 20  2  0
  2 21  1  0
  7 22  1  0
  8 23  1  0
  8 24  1  0
  8 25  1  0
 10 26  1  0
 11 27  1  0
 12 28  1  0
 13 29  1  0
 14 30  1  0
 16 31  1  0
 17 32  1  0
 19 33  1  0
 20 34  1  0
 35 36  1  0
 36 37  2  0
 37 38  1  0
 38 39  2  0
 39 40  1  0
 39 41  1  0
 41 42  1  0
 41 43  2  0
 43 36  1  0
 35 44  1  0
 35 45  1  0
 37 46  1  0
 38 47  1  0
 43 48  1  0
 18 35  1  0
M  END
>  <attachment_point>  (467) 
32

>  <score>  (467) 
<NA>

$$$$
4djw
     RDKit          3D

 50 54  0  0  0  0  0  0  0  0999 V2000
   22.4950   11.8750   22.5810 C   0  0  0  0  0  0  0  0  0  0  0  0
   22.5380    9.4930   22.4640 N   0  0  0  0  0  0  0  0  0  0  0  0
   22.3600   13.0630   22.3480 O   0  0  0  0  0  0  0  0  0  0  0  0
   22.3390   10.6680   21.5610 C   0  0  0  0  0  0  0  0  0  0  0  0
   22.7860   11.3350   23.8120 N   0  0  0  0  0  0  0  0  0  0  0  0
   22.7800    9.9140   23.7010 C   0  0  0  0  0  0  0  0  0  0  0  0
   22.9970    9.1110   24.7490 N   0  0  0  0  0  0  0  0  0  0  0  0
   23.0220   12.1410   25.0180 C   0  0  0  0  0  0  0  0  0  0  0  0
   20.9020   10.6270   21.0050 C   0  0  0  0  0  0  0  0  0  0  0  0
   20.2720    9.4140   20.7470 C   0  0  0  0  0  0  0  0  0  0  0  0
   18.9690    9.3760   20.2600 C   0  0  0  0  0  0  0  0  0  0  0  0
   18.2800   10.5440   20.0210 C   0  0  0  0  0  0  0  0  0  0  0  0
   18.8920   11.7530   20.2590 C   0  0  0  0  0  0  0  0  0  0  0  0
   20.1950   11.7970   20.7440 C   0  0  0  0  0  0  0  0  0  0  0  0
   23.4880   10.6920   20.5300 C   0  0  0  0  0  0  0  0  0  0  0  0
   23.2110   10.7890   19.1730 C   0  0  0  0  0  0  0  0  0  0  0  0
   24.2350   10.8650   18.2430 C   0  0  0  0  0  0  0  0  0  0  0  0
   25.5500   10.8410   18.6560 C   0  0  0  0  0  0  0  0  0  0  0  0
   25.8710   10.7460   20.0070 C   0  0  0  0  0  0  0  0  0  0  0  0
   24.8260   10.6610   20.9430 C   0  0  0  0  0  0  0  0  0  0  0  0
    0.0000    0.0000    0.0000 H   0  0  0  0  0  0  0  0  0  0  0  0
    0.0000    0.0000    0.0000 H   0  0  0  0  0  0  0  0  0  0  0  0
    0.0000    0.0000    0.0000 H   0  0  0  0  0  0  0  0  0  0  0  0
    0.0000    0.0000    0.0000 H   0  0  0  0  0  0  0  0  0  0  0  0
    0.0000    0.0000    0.0000 H   0  0  0  0  0  0  0  0  0  0  0  0
    0.0000    0.0000    0.0000 H   0  0  0  0  0  0  0  0  0  0  0  0
    0.0000    0.0000    0.0000 H   0  0  0  0  0  0  0  0  0  0  0  0
    0.0000    0.0000    0.0000 H   0  0  0  0  0  0  0  0  0  0  0  0
    0.0000    0.0000    0.0000 H   0  0  0  0  0  0  0  0  0  0  0  0
    0.0000    0.0000    0.0000 H   0  0  0  0  0  0  0  0  0  0  0  0
    0.0000    0.0000    0.0000 H   0  0  0  0  0  0  0  0  0  0  0  0
    0.0000    0.0000    0.0000 H   0  0  0  0  0  0  0  0  0  0  0  0
    0.0000    0.0000    0.0000 H   0  0  0  0  0  0  0  0  0  0  0  0
    0.0000    0.0000    0.0000 H   0  0  0  0  0  0  0  0  0  0  0  0
   12.4259    5.2724    9.0731 C   0  0  0  0  0  0  0  0  0  0  0  0
   11.1439    5.6494    9.4160 C   0  0  0  0  0  0  0  0  0  0  0  0
   10.0692    5.2174    8.6647 C   0  0  0  0  0  0  0  0  0  0  0  0
   10.3311    4.4066    7.5758 C   0  0  0  0  0  0  0  0  0  0  0  0
   11.6224    4.0288    7.2332 C   0  0  0  0  0  0  0  0  0  0  0  0
   11.8787    3.2185    6.1441 C   0  0  0  0  0  0  0  0  0  0  0  0
   13.1794    2.8703    5.8442 C   0  0  0  0  0  0  0  0  0  0  0  0
   14.2384    3.3139    6.6092 C   0  0  0  0  0  0  0  0  0  0  0  0
   13.9644    4.1022    7.6651 N   0  0  0  0  0  0  0  0  0  0  0  0
   12.7023    4.4689    7.9964 C   0  0  0  0  0  0  0  0  0  0  0  0
   10.9336    6.2942   10.2818 H   0  0  0  0  0  0  0  0  0  0  0  0
    9.0609    5.5070    8.9245 H   0  0  0  0  0  0  0  0  0  0  0  0
    9.5101    4.0567    6.9742 H   0  0  0  0  0  0  0  0  0  0  0  0
   11.0317    2.8836    5.5599 H   0  0  0  0  0  0  0  0  0  0  0  0
   13.3877    2.2357    4.9923 H   0  0  0  0  0  0  0  0  0  0  0  0
   15.2276    3.0145    6.3328 H   0  0  0  0  0  0  0  0  0  0  0  0
  1  3  2  0
  1  4  1  0
  1  5  1  0
  2  4  1  0
  2  6  1  0
  4  9  1  0
  4 15  1  0
  5  6  1  0
  5  8  1  0
  6  7  2  3
  9 10  2  0
  9 14  1  0
 10 11  1  0
 11 12  2  0
 12 13  1  0
 13 14  2  0
 15 16  2  0
 15 20  1  0
 16 17  1  0
 17 18  2  0
 18 19  1  0
 19 20  2  0
  2 21  1  0
  7 22  1  0
  8 23  1  0
  8 24  1  0
  8 25  1  0
 10 26  1  0
 11 27  1  0
 12 28  1  0
 13 29  1  0
 14 30  1  0
 16 31  1  0
 17 32  1  0
 19 33  1  0
 20 34  1  0
 35 36  2  0
 36 37  1  0
 37 38  2  0
 38 39  1  0
 39 40  2  0
 40 41  1  0
 41 42  2  0
 42 43  1  0
 43 44  2  0
 44 35  1  0
 44 39  1  0
 36 45  1  0
 37 46  1  0
 38 47  1  0
 40 48  1  0
 41 49  1  0
 42 50  1  0
 18 35  1  0
M  END
>  <attachment_point>  (468) 
32

>  <score>  (468) 
<NA>

$$$$
4djw
     RDKit          3D

 51 54  0  0  0  0  0  0  0  0999 V2000
   22.4950   11.8750   22.5810 C   0  0  0  0  0  0  0  0  0  0  0  0
   22.5380    9.4930   22.4640 N   0  0  0  0  0  0  0  0  0  0  0  0
   22.3600   13.0630   22.3480 O   0  0  0  0  0  0  0  0  0  0  0  0
   22.3390   10.6680   21.5610 C   0  0  0  0  0  0  0  0  0  0  0  0
   22.7860   11.3350   23.8120 N   0  0  0  0  0  0  0  0  0  0  0  0
   22.7800    9.9140   23.7010 C   0  0  0  0  0  0  0  0  0  0  0  0
   22.9970    9.1110   24.7490 N   0  0  0  0  0  0  0  0  0  0  0  0
   23.0220   12.1410   25.0180 C   0  0  0  0  0  0  0  0  0  0  0  0
   20.9020   10.6270   21.0050 C   0  0  0  0  0  0  0  0  0  0  0  0
   20.2720    9.4140   20.7470 C   0  0  0  0  0  0  0  0  0  0  0  0
   18.9690    9.3760   20.2600 C   0  0  0  0  0  0  0  0  0  0  0  0
   18.2800   10.5440   20.0210 C   0  0  0  0  0  0  0  0  0  0  0  0
   18.8920   11.7530   20.2590 C   0  0  0  0  0  0  0  0  0  0  0  0
   20.1950   11.7970   20.7440 C   0  0  0  0  0  0  0  0  0  0  0  0
   23.4880   10.6920   20.5300 C   0  0  0  0  0  0  0  0  0  0  0  0
   23.2110   10.7890   19.1730 C   0  0  0  0  0  0  0  0  0  0  0  0
   24.2350   10.8650   18.2430 C   0  0  0  0  0  0  0  0  0  0  0  0
   25.5500   10.8410   18.6560 C   0  0  0  0  0  0  0  0  0  0  0  0
   25.8710   10.7460   20.0070 C   0  0  0  0  0  0  0  0  0  0  0  0
   24.8260   10.6610   20.9430 C   0  0  0  0  0  0  0  0  0  0  0  0
    0.0000    0.0000    0.0000 H   0  0  0  0  0  0  0  0  0  0  0  0
    0.0000    0.0000    0.0000 H   0  0  0  0  0  0  0  0  0  0  0  0
    0.0000    0.0000    0.0000 H   0  0  0  0  0  0  0  0  0  0  0  0
    0.0000    0.0000    0.0000 H   0  0  0  0  0  0  0  0  0  0  0  0
    0.0000    0.0000    0.0000 H   0  0  0  0  0  0  0  0  0  0  0  0
    0.0000    0.0000    0.0000 H   0  0  0  0  0  0  0  0  0  0  0  0
    0.0000    0.0000    0.0000 H   0  0  0  0  0  0  0  0  0  0  0  0
    0.0000    0.0000    0.0000 H   0  0  0  0  0  0  0  0  0  0  0  0
    0.0000    0.0000    0.0000 H   0  0  0  0  0  0  0  0  0  0  0  0
    0.0000    0.0000    0.0000 H   0  0  0  0  0  0  0  0  0  0  0  0
    0.0000    0.0000    0.0000 H   0  0  0  0  0  0  0  0  0  0  0  0
    0.0000    0.0000    0.0000 H   0  0  0  0  0  0  0  0  0  0  0  0
    0.0000    0.0000    0.0000 H   0  0  0  0  0  0  0  0  0  0  0  0
    0.0000    0.0000    0.0000 H   0  0  0  0  0  0  0  0  0  0  0  0
   12.4552    5.2848    9.0945 C   0  0  0  0  0  0  0  0  0  0  0  0
   11.8024    6.1859    8.2500 C   0  0  0  0  0  0  0  0  0  0  0  0
   10.7542    5.7729    7.4748 C   0  0  0  0  0  0  0  0  0  0  0  0
   10.3627    4.4416    7.5528 C   0  0  0  0  0  0  0  0  0  0  0  0
    9.2333    3.9376    6.7360 C   0  0  0  0  0  0  0  0  0  0  0  0
   11.0040    3.5490    8.3846 C   0  0  0  0  0  0  0  0  0  0  0  0
   10.5512    2.1359    8.4353 C   0  0  0  0  0  0  0  0  0  0  0  0
   12.0610    3.9511    9.1709 C   0  0  0  0  0  0  0  0  0  0  0  0
   12.1263    7.2349    8.2019 H   0  0  0  0  0  0  0  0  0  0  0  0
   10.2214    6.4344    6.8086 H   0  0  0  0  0  0  0  0  0  0  0  0
    9.2945    2.8459    6.6005 H   0  0  0  0  0  0  0  0  0  0  0  0
    9.1384    4.4717    5.7707 H   0  0  0  0  0  0  0  0  0  0  0  0
    8.2972    4.1239    7.3367 H   0  0  0  0  0  0  0  0  0  0  0  0
   11.1472    1.5377    9.1521 H   0  0  0  0  0  0  0  0  0  0  0  0
   10.7063    1.6348    7.4388 H   0  0  0  0  0  0  0  0  0  0  0  0
    9.4558    2.0625    8.6476 H   0  0  0  0  0  0  0  0  0  0  0  0
   12.5653    3.2525    9.8242 H   0  0  0  0  0  0  0  0  0  0  0  0
  1  3  2  0
  1  4  1  0
  1  5  1  0
  2  4  1  0
  2  6  1  0
  4  9  1  0
  4 15  1  0
  5  6  1  0
  5  8  1  0
  6  7  2  3
  9 10  2  0
  9 14  1  0
 10 11  1  0
 11 12  2  0
 12 13  1  0
 13 14  2  0
 15 16  2  0
 15 20  1  0
 16 17  1  0
 17 18  2  0
 18 19  1  0
 19 20  2  0
  2 21  1  0
  7 22  1  0
  8 23  1  0
  8 24  1  0
  8 25  1  0
 10 26  1  0
 11 27  1  0
 12 28  1  0
 13 29  1  0
 14 30  1  0
 16 31  1  0
 17 32  1  0
 19 33  1  0
 20 34  1  0
 35 36  2  0
 36 37  1  0
 37 38  2  0
 38 39  1  0
 38 40  1  0
 40 41  1  0
 40 42  2  0
 42 35  1  0
 36 43  1  0
 37 44  1  0
 39 45  1  0
 39 46  1  0
 39 47  1  0
 41 48  1  0
 41 49  1  0
 41 50  1  0
 42 51  1  0
 18 35  1  0
M  END
>  <attachment_point>  (469) 
32

>  <score>  (469) 
<NA>

$$$$
4djw
     RDKit          3D

 52 55  0  0  0  0  0  0  0  0999 V2000
   22.4950   11.8750   22.5810 C   0  0  0  0  0  0  0  0  0  0  0  0
   22.5380    9.4930   22.4640 N   0  0  0  0  0  0  0  0  0  0  0  0
   22.3600   13.0630   22.3480 O   0  0  0  0  0  0  0  0  0  0  0  0
   22.3390   10.6680   21.5610 C   0  0  0  0  0  0  0  0  0  0  0  0
   22.7860   11.3350   23.8120 N   0  0  0  0  0  0  0  0  0  0  0  0
   22.7800    9.9140   23.7010 C   0  0  0  0  0  0  0  0  0  0  0  0
   22.9970    9.1110   24.7490 N   0  0  0  0  0  0  0  0  0  0  0  0
   23.0220   12.1410   25.0180 C   0  0  0  0  0  0  0  0  0  0  0  0
   20.9020   10.6270   21.0050 C   0  0  0  0  0  0  0  0  0  0  0  0
   20.2720    9.4140   20.7470 C   0  0  0  0  0  0  0  0  0  0  0  0
   18.9690    9.3760   20.2600 C   0  0  0  0  0  0  0  0  0  0  0  0
   18.2800   10.5440   20.0210 C   0  0  0  0  0  0  0  0  0  0  0  0
   18.8920   11.7530   20.2590 C   0  0  0  0  0  0  0  0  0  0  0  0
   20.1950   11.7970   20.7440 C   0  0  0  0  0  0  0  0  0  0  0  0
   23.4880   10.6920   20.5300 C   0  0  0  0  0  0  0  0  0  0  0  0
   23.2110   10.7890   19.1730 C   0  0  0  0  0  0  0  0  0  0  0  0
   24.2350   10.8650   18.2430 C   0  0  0  0  0  0  0  0  0  0  0  0
   25.5500   10.8410   18.6560 C   0  0  0  0  0  0  0  0  0  0  0  0
   25.8710   10.7460   20.0070 C   0  0  0  0  0  0  0  0  0  0  0  0
   24.8260   10.6610   20.9430 C   0  0  0  0  0  0  0  0  0  0  0  0
    0.0000    0.0000    0.0000 H   0  0  0  0  0  0  0  0  0  0  0  0
    0.0000    0.0000    0.0000 H   0  0  0  0  0  0  0  0  0  0  0  0
    0.0000    0.0000    0.0000 H   0  0  0  0  0  0  0  0  0  0  0  0
    0.0000    0.0000    0.0000 H   0  0  0  0  0  0  0  0  0  0  0  0
    0.0000    0.0000    0.0000 H   0  0  0  0  0  0  0  0  0  0  0  0
    0.0000    0.0000    0.0000 H   0  0  0  0  0  0  0  0  0  0  0  0
    0.0000    0.0000    0.0000 H   0  0  0  0  0  0  0  0  0  0  0  0
    0.0000    0.0000    0.0000 H   0  0  0  0  0  0  0  0  0  0  0  0
    0.0000    0.0000    0.0000 H   0  0  0  0  0  0  0  0  0  0  0  0
    0.0000    0.0000    0.0000 H   0  0  0  0  0  0  0  0  0  0  0  0
    0.0000    0.0000    0.0000 H   0  0  0  0  0  0  0  0  0  0  0  0
    0.0000    0.0000    0.0000 H   0  0  0  0  0  0  0  0  0  0  0  0
    0.0000    0.0000    0.0000 H   0  0  0  0  0  0  0  0  0  0  0  0
    0.0000    0.0000    0.0000 H   0  0  0  0  0  0  0  0  0  0  0  0
   12.4588    5.2863    9.0971 C   0  0  0  0  0  0  0  0  0  0  0  0
   11.8739    6.1734    8.2126 C   0  0  0  0  0  0  0  0  0  0  0  0
   10.8325    5.7557    7.4426 C   0  0  0  0  0  0  0  0  0  0  0  0
   10.3798    4.4365    7.5663 C   0  0  0  0  0  0  0  0  0  0  0  0
   10.9304    3.5254    8.4293 C   0  0  0  0  0  0  0  0  0  0  0  0
   10.4997    2.1937    8.5779 N   0  0  0  0  0  0  0  0  0  0  0  0
    9.4589    1.5482    7.9003 C   0  0  0  0  0  0  0  0  0  0  0  0
    9.1538    0.1157    8.2025 C   0  0  0  0  0  0  0  0  0  0  0  0
    8.7761    2.1450    7.0447 O   0  0  0  0  0  0  0  0  0  0  0  0
   12.0027    4.0022    9.2035 C   0  0  0  0  0  0  0  0  0  0  0  0
   12.2211    7.2014    8.1113 H   0  0  0  0  0  0  0  0  0  0  0  0
   10.3138    6.3727    6.7267 H   0  0  0  0  0  0  0  0  0  0  0  0
    9.5381    4.1400    6.9272 H   0  0  0  0  0  0  0  0  0  0  0  0
   11.0216    1.5929    9.2900 H   0  0  0  0  0  0  0  0  0  0  0  0
    9.7194   -0.5091    7.4904 H   0  0  0  0  0  0  0  0  0  0  0  0
    8.0528   -0.0141    8.0905 H   0  0  0  0  0  0  0  0  0  0  0  0
    9.4441   -0.0563    9.2483 H   0  0  0  0  0  0  0  0  0  0  0  0
   12.4555    3.2811    9.9020 H   0  0  0  0  0  0  0  0  0  0  0  0
  1  3  2  0
  1  4  1  0
  1  5  1  0
  2  4  1  0
  2  6  1  0
  4  9  1  0
  4 15  1  0
  5  6  1  0
  5  8  1  0
  6  7  2  3
  9 10  2  0
  9 14  1  0
 10 11  1  0
 11 12  2  0
 12 13  1  0
 13 14  2  0
 15 16  2  0
 15 20  1  0
 16 17  1  0
 17 18  2  0
 18 19  1  0
 19 20  2  0
  2 21  1  0
  7 22  1  0
  8 23  1  0
  8 24  1  0
  8 25  1  0
 10 26  1  0
 11 27  1  0
 12 28  1  0
 13 29  1  0
 14 30  1  0
 16 31  1  0
 17 32  1  0
 19 33  1  0
 20 34  1  0
 35 36  2  0
 36 37  1  0
 37 38  2  0
 38 39  1  0
 39 40  1  0
 40 41  1  0
 41 42  1  0
 41 43  2  0
 39 44  2  0
 44 35  1  0
 36 45  1  0
 37 46  1  0
 38 47  1  0
 40 48  1  0
 42 49  1  0
 42 50  1  0
 42 51  1  0
 44 52  1  0
 18 35  1  0
M  END
>  <attachment_point>  (470) 
32

>  <score>  (470) 
<NA>

$$$$
4djw
     RDKit          3D

 43 46  0  0  0  0  0  0  0  0999 V2000
   22.4950   11.8750   22.5810 C   0  0  0  0  0  0  0  0  0  0  0  0
   22.5380    9.4930   22.4640 N   0  0  0  0  0  0  0  0  0  0  0  0
   22.3600   13.0630   22.3480 O   0  0  0  0  0  0  0  0  0  0  0  0
   22.3390   10.6680   21.5610 C   0  0  0  0  0  0  0  0  0  0  0  0
   22.7860   11.3350   23.8120 N   0  0  0  0  0  0  0  0  0  0  0  0
   22.7800    9.9140   23.7010 C   0  0  0  0  0  0  0  0  0  0  0  0
   22.9970    9.1110   24.7490 N   0  0  0  0  0  0  0  0  0  0  0  0
   23.0220   12.1410   25.0180 C   0  0  0  0  0  0  0  0  0  0  0  0
   20.9020   10.6270   21.0050 C   0  0  0  0  0  0  0  0  0  0  0  0
   20.2720    9.4140   20.7470 C   0  0  0  0  0  0  0  0  0  0  0  0
   18.9690    9.3760   20.2600 C   0  0  0  0  0  0  0  0  0  0  0  0
   18.2800   10.5440   20.0210 C   0  0  0  0  0  0  0  0  0  0  0  0
   18.8920   11.7530   20.2590 C   0  0  0  0  0  0  0  0  0  0  0  0
   20.1950   11.7970   20.7440 C   0  0  0  0  0  0  0  0  0  0  0  0
   23.4880   10.6920   20.5300 C   0  0  0  0  0  0  0  0  0  0  0  0
   23.2110   10.7890   19.1730 C   0  0  0  0  0  0  0  0  0  0  0  0
   24.2350   10.8650   18.2430 C   0  0  0  0  0  0  0  0  0  0  0  0
   25.5500   10.8410   18.6560 C   0  0  0  0  0  0  0  0  0  0  0  0
   25.8710   10.7460   20.0070 C   0  0  0  0  0  0  0  0  0  0  0  0
   24.8260   10.6610   20.9430 C   0  0  0  0  0  0  0  0  0  0  0  0
    0.0000    0.0000    0.0000 H   0  0  0  0  0  0  0  0  0  0  0  0
    0.0000    0.0000    0.0000 H   0  0  0  0  0  0  0  0  0  0  0  0
    0.0000    0.0000    0.0000 H   0  0  0  0  0  0  0  0  0  0  0  0
    0.0000    0.0000    0.0000 H   0  0  0  0  0  0  0  0  0  0  0  0
    0.0000    0.0000    0.0000 H   0  0  0  0  0  0  0  0  0  0  0  0
    0.0000    0.0000    0.0000 H   0  0  0  0  0  0  0  0  0  0  0  0
    0.0000    0.0000    0.0000 H   0  0  0  0  0  0  0  0  0  0  0  0
    0.0000    0.0000    0.0000 H   0  0  0  0  0  0  0  0  0  0  0  0
    0.0000    0.0000    0.0000 H   0  0  0  0  0  0  0  0  0  0  0  0
    0.0000    0.0000    0.0000 H   0  0  0  0  0  0  0  0  0  0  0  0
    0.0000    0.0000    0.0000 H   0  0  0  0  0  0  0  0  0  0  0  0
    0.0000    0.0000    0.0000 H   0  0  0  0  0  0  0  0  0  0  0  0
    0.0000    0.0000    0.0000 H   0  0  0  0  0  0  0  0  0  0  0  0
    0.0000    0.0000    0.0000 H   0  0  0  0  0  0  0  0  0  0  0  0
   12.4157    5.2680    9.0656 C   0  0  0  0  0  0  0  0  0  0  0  0
   12.4964    4.4426    8.0361 N   0  0  0  0  0  0  0  0  0  0  0  0
   11.2491    4.2665    7.5724 N   0  0  0  0  0  0  0  0  0  0  0  0
   10.4264    4.9971    8.3389 C   0  0  0  0  0  0  0  0  0  0  0  0
    8.9598    5.0906    8.1741 C   0  0  0  0  0  0  0  0  0  0  0  0
   11.1782    5.5886    9.2328 O   0  0  0  0  0  0  0  0  0  0  0  0
    8.7831    5.8130    7.3268 H   0  0  0  0  0  0  0  0  0  0  0  0
    8.5443    5.4910    9.1298 H   0  0  0  0  0  0  0  0  0  0  0  0
    8.5634    4.0912    7.9269 H   0  0  0  0  0  0  0  0  0  0  0  0
  1  3  2  0
  1  4  1  0
  1  5  1  0
  2  4  1  0
  2  6  1  0
  4  9  1  0
  4 15  1  0
  5  6  1  0
  5  8  1  0
  6  7  2  3
  9 10  2  0
  9 14  1  0
 10 11  1  0
 11 12  2  0
 12 13  1  0
 13 14  2  0
 15 16  2  0
 15 20  1  0
 16 17  1  0
 17 18  2  0
 18 19  1  0
 19 20  2  0
  2 21  1  0
  7 22  1  0
  8 23  1  0
  8 24  1  0
  8 25  1  0
 10 26  1  0
 11 27  1  0
 12 28  1  0
 13 29  1  0
 14 30  1  0
 16 31  1  0
 17 32  1  0
 19 33  1  0
 20 34  1  0
 35 36  2  0
 36 37  1  0
 37 38  2  0
 38 39  1  0
 38 40  1  0
 40 35  1  0
 39 41  1  0
 39 42  1  0
 39 43  1  0
 18 35  1  0
M  END
>  <attachment_point>  (471) 
32

>  <score>  (471) 
<NA>

$$$$
4djw
     RDKit          3D

 48 51  0  0  0  0  0  0  0  0999 V2000
   22.4950   11.8750   22.5810 C   0  0  0  0  0  0  0  0  0  0  0  0
   22.5380    9.4930   22.4640 N   0  0  0  0  0  0  0  0  0  0  0  0
   22.3600   13.0630   22.3480 O   0  0  0  0  0  0  0  0  0  0  0  0
   22.3390   10.6680   21.5610 C   0  0  0  0  0  0  0  0  0  0  0  0
   22.7860   11.3350   23.8120 N   0  0  0  0  0  0  0  0  0  0  0  0
   22.7800    9.9140   23.7010 C   0  0  0  0  0  0  0  0  0  0  0  0
   22.9970    9.1110   24.7490 N   0  0  0  0  0  0  0  0  0  0  0  0
   23.0220   12.1410   25.0180 C   0  0  0  0  0  0  0  0  0  0  0  0
   20.9020   10.6270   21.0050 C   0  0  0  0  0  0  0  0  0  0  0  0
   20.2720    9.4140   20.7470 C   0  0  0  0  0  0  0  0  0  0  0  0
   18.9690    9.3760   20.2600 C   0  0  0  0  0  0  0  0  0  0  0  0
   18.2800   10.5440   20.0210 C   0  0  0  0  0  0  0  0  0  0  0  0
   18.8920   11.7530   20.2590 C   0  0  0  0  0  0  0  0  0  0  0  0
   20.1950   11.7970   20.7440 C   0  0  0  0  0  0  0  0  0  0  0  0
   23.4880   10.6920   20.5300 C   0  0  0  0  0  0  0  0  0  0  0  0
   23.2110   10.7890   19.1730 C   0  0  0  0  0  0  0  0  0  0  0  0
   24.2350   10.8650   18.2430 C   0  0  0  0  0  0  0  0  0  0  0  0
   25.5500   10.8410   18.6560 C   0  0  0  0  0  0  0  0  0  0  0  0
   25.8710   10.7460   20.0070 C   0  0  0  0  0  0  0  0  0  0  0  0
   24.8260   10.6610   20.9430 C   0  0  0  0  0  0  0  0  0  0  0  0
    0.0000    0.0000    0.0000 H   0  0  0  0  0  0  0  0  0  0  0  0
    0.0000    0.0000    0.0000 H   0  0  0  0  0  0  0  0  0  0  0  0
    0.0000    0.0000    0.0000 H   0  0  0  0  0  0  0  0  0  0  0  0
    0.0000    0.0000    0.0000 H   0  0  0  0  0  0  0  0  0  0  0  0
    0.0000    0.0000    0.0000 H   0  0  0  0  0  0  0  0  0  0  0  0
    0.0000    0.0000    0.0000 H   0  0  0  0  0  0  0  0  0  0  0  0
    0.0000    0.0000    0.0000 H   0  0  0  0  0  0  0  0  0  0  0  0
    0.0000    0.0000    0.0000 H   0  0  0  0  0  0  0  0  0  0  0  0
    0.0000    0.0000    0.0000 H   0  0  0  0  0  0  0  0  0  0  0  0
    0.0000    0.0000    0.0000 H   0  0  0  0  0  0  0  0  0  0  0  0
    0.0000    0.0000    0.0000 H   0  0  0  0  0  0  0  0  0  0  0  0
    0.0000    0.0000    0.0000 H   0  0  0  0  0  0  0  0  0  0  0  0
    0.0000    0.0000    0.0000 H   0  0  0  0  0  0  0  0  0  0  0  0
    0.0000    0.0000    0.0000 H   0  0  0  0  0  0  0  0  0  0  0  0
   12.4532    5.2840    9.0931 C   0  0  0  0  0  0  0  0  0  0  0  0
   12.8398    4.2308    8.1163 C   0  0  0  0  0  0  0  0  0  0  0  0
   12.7956    2.8896    8.4392 C   0  0  0  0  0  0  0  0  0  0  0  0
   13.1520    1.9016    7.5408 C   0  0  0  0  0  0  0  0  0  0  0  0
   13.5724    2.2203    6.2669 C   0  0  0  0  0  0  0  0  0  0  0  0
   13.6190    3.5571    5.9376 C   0  0  0  0  0  0  0  0  0  0  0  0
   14.0302    3.9259    4.6832 F   0  0  0  0  0  0  0  0  0  0  0  0
   13.2622    4.5410    6.8375 C   0  0  0  0  0  0  0  0  0  0  0  0
   11.5852    4.9535    9.7330 H   0  0  0  0  0  0  0  0  0  0  0  0
   12.0531    6.1931    8.5564 H   0  0  0  0  0  0  0  0  0  0  0  0
   12.4609    2.6539    9.4508 H   0  0  0  0  0  0  0  0  0  0  0  0
   13.1010    0.8623    7.8401 H   0  0  0  0  0  0  0  0  0  0  0  0
   13.8597    1.4751    5.5356 H   0  0  0  0  0  0  0  0  0  0  0  0
   13.2987    5.6101    6.5765 H   0  0  0  0  0  0  0  0  0  0  0  0
  1  3  2  0
  1  4  1  0
  1  5  1  0
  2  4  1  0
  2  6  1  0
  4  9  1  0
  4 15  1  0
  5  6  1  0
  5  8  1  0
  6  7  2  3
  9 10  2  0
  9 14  1  0
 10 11  1  0
 11 12  2  0
 12 13  1  0
 13 14  2  0
 15 16  2  0
 15 20  1  0
 16 17  1  0
 17 18  2  0
 18 19  1  0
 19 20  2  0
  2 21  1  0
  7 22  1  0
  8 23  1  0
  8 24  1  0
  8 25  1  0
 10 26  1  0
 11 27  1  0
 12 28  1  0
 13 29  1  0
 14 30  1  0
 16 31  1  0
 17 32  1  0
 19 33  1  0
 20 34  1  0
 35 36  1  0
 36 37  2  0
 37 38  1  0
 38 39  2  0
 39 40  1  0
 40 41  1  0
 40 42  2  0
 42 36  1  0
 35 43  1  0
 35 44  1  0
 37 45  1  0
 38 46  1  0
 39 47  1  0
 42 48  1  0
 18 35  1  0
M  END
>  <attachment_point>  (472) 
32

>  <score>  (472) 
<NA>

$$$$
4djw
     RDKit          3D

 54 57  0  0  0  0  0  0  0  0999 V2000
   22.4950   11.8750   22.5810 C   0  0  0  0  0  0  0  0  0  0  0  0
   22.5380    9.4930   22.4640 N   0  0  0  0  0  0  0  0  0  0  0  0
   22.3600   13.0630   22.3480 O   0  0  0  0  0  0  0  0  0  0  0  0
   22.3390   10.6680   21.5610 C   0  0  0  0  0  0  0  0  0  0  0  0
   22.7860   11.3350   23.8120 N   0  0  0  0  0  0  0  0  0  0  0  0
   22.7800    9.9140   23.7010 C   0  0  0  0  0  0  0  0  0  0  0  0
   22.9970    9.1110   24.7490 N   0  0  0  0  0  0  0  0  0  0  0  0
   23.0220   12.1410   25.0180 C   0  0  0  0  0  0  0  0  0  0  0  0
   20.9020   10.6270   21.0050 C   0  0  0  0  0  0  0  0  0  0  0  0
   20.2720    9.4140   20.7470 C   0  0  0  0  0  0  0  0  0  0  0  0
   18.9690    9.3760   20.2600 C   0  0  0  0  0  0  0  0  0  0  0  0
   18.2800   10.5440   20.0210 C   0  0  0  0  0  0  0  0  0  0  0  0
   18.8920   11.7530   20.2590 C   0  0  0  0  0  0  0  0  0  0  0  0
   20.1950   11.7970   20.7440 C   0  0  0  0  0  0  0  0  0  0  0  0
   23.4880   10.6920   20.5300 C   0  0  0  0  0  0  0  0  0  0  0  0
   23.2110   10.7890   19.1730 C   0  0  0  0  0  0  0  0  0  0  0  0
   24.2350   10.8650   18.2430 C   0  0  0  0  0  0  0  0  0  0  0  0
   25.5500   10.8410   18.6560 C   0  0  0  0  0  0  0  0  0  0  0  0
   25.8710   10.7460   20.0070 C   0  0  0  0  0  0  0  0  0  0  0  0
   24.8260   10.6610   20.9430 C   0  0  0  0  0  0  0  0  0  0  0  0
    0.0000    0.0000    0.0000 H   0  0  0  0  0  0  0  0  0  0  0  0
    0.0000    0.0000    0.0000 H   0  0  0  0  0  0  0  0  0  0  0  0
    0.0000    0.0000    0.0000 H   0  0  0  0  0  0  0  0  0  0  0  0
    0.0000    0.0000    0.0000 H   0  0  0  0  0  0  0  0  0  0  0  0
    0.0000    0.0000    0.0000 H   0  0  0  0  0  0  0  0  0  0  0  0
    0.0000    0.0000    0.0000 H   0  0  0  0  0  0  0  0  0  0  0  0
    0.0000    0.0000    0.0000 H   0  0  0  0  0  0  0  0  0  0  0  0
    0.0000    0.0000    0.0000 H   0  0  0  0  0  0  0  0  0  0  0  0
    0.0000    0.0000    0.0000 H   0  0  0  0  0  0  0  0  0  0  0  0
    0.0000    0.0000    0.0000 H   0  0  0  0  0  0  0  0  0  0  0  0
    0.0000    0.0000    0.0000 H   0  0  0  0  0  0  0  0  0  0  0  0
    0.0000    0.0000    0.0000 H   0  0  0  0  0  0  0  0  0  0  0  0
    0.0000    0.0000    0.0000 H   0  0  0  0  0  0  0  0  0  0  0  0
    0.0000    0.0000    0.0000 H   0  0  0  0  0  0  0  0  0  0  0  0
   12.5784    5.3371    9.1844 O   0  0  0  0  0  0  0  0  0  0  0  0
   11.2057    5.5060    9.1288 C   0  0  0  0  0  0  0  0  0  0  0  0
   10.6336    4.6949    7.9948 C   0  0  0  0  0  0  0  0  0  0  0  0
   11.2810    5.1954    6.7143 C   0  0  0  0  0  0  0  0  0  0  0  0
   10.7061    4.4379    5.5707 C   0  0  0  0  0  0  0  0  0  0  0  0
   10.6419    3.0498    5.6925 N   0  0  0  0  0  0  0  0  0  0  0  0
   10.7877    2.4254    6.9269 C   0  0  0  0  0  0  0  0  0  0  0  0
   11.0440    3.2548    8.1192 C   0  0  0  0  0  0  0  0  0  0  0  0
   10.7755    5.2028   10.0831 H   0  0  0  0  0  0  0  0  0  0  0  0
   10.9956    6.5714    8.9075 H   0  0  0  0  0  0  0  0  0  0  0  0
    9.5476    4.7597    7.9758 H   0  0  0  0  0  0  0  0  0  0  0  0
   12.3763    4.9901    6.8103 H   0  0  0  0  0  0  0  0  0  0  0  0
   11.0628    6.2684    6.6393 H   0  0  0  0  0  0  0  0  0  0  0  0
   11.3408    4.6954    4.6702 H   0  0  0  0  0  0  0  0  0  0  0  0
    9.7103    4.9086    5.3284 H   0  0  0  0  0  0  0  0  0  0  0  0
    9.9648    2.6215    5.0450 H   0  0  0  0  0  0  0  0  0  0  0  0
   11.6155    1.6579    6.8569 H   0  0  0  0  0  0  0  0  0  0  0  0
    9.8716    1.7966    7.1336 H   0  0  0  0  0  0  0  0  0  0  0  0
   10.5103    2.8467    9.0233 H   0  0  0  0  0  0  0  0  0  0  0  0
   12.1299    3.2161    8.4030 H   0  0  0  0  0  0  0  0  0  0  0  0
  1  3  2  0
  1  4  1  0
  1  5  1  0
  2  4  1  0
  2  6  1  0
  4  9  1  0
  4 15  1  0
  5  6  1  0
  5  8  1  0
  6  7  2  3
  9 10  2  0
  9 14  1  0
 10 11  1  0
 11 12  2  0
 12 13  1  0
 13 14  2  0
 15 16  2  0
 15 20  1  0
 16 17  1  0
 17 18  2  0
 18 19  1  0
 19 20  2  0
  2 21  1  0
  7 22  1  0
  8 23  1  0
  8 24  1  0
  8 25  1  0
 10 26  1  0
 11 27  1  0
 12 28  1  0
 13 29  1  0
 14 30  1  0
 16 31  1  0
 17 32  1  0
 19 33  1  0
 20 34  1  0
 35 36  1  0
 36 37  1  0
 37 38  1  0
 38 39  1  0
 39 40  1  0
 40 41  1  0
 41 42  1  0
 42 37  1  0
 36 43  1  0
 36 44  1  0
 37 45  1  0
 38 46  1  0
 38 47  1  0
 39 48  1  0
 39 49  1  0
 40 50  1  0
 41 51  1  0
 41 52  1  0
 42 53  1  0
 42 54  1  0
 18 35  1  0
M  END
>  <attachment_point>  (473) 
32

>  <score>  (473) 
<NA>

$$$$
4djw
     RDKit          3D

 52 55  0  0  0  0  0  0  0  0999 V2000
   22.4950   11.8750   22.5810 C   0  0  0  0  0  0  0  0  0  0  0  0
   22.5380    9.4930   22.4640 N   0  0  0  0  0  0  0  0  0  0  0  0
   22.3600   13.0630   22.3480 O   0  0  0  0  0  0  0  0  0  0  0  0
   22.3390   10.6680   21.5610 C   0  0  0  0  0  0  0  0  0  0  0  0
   22.7860   11.3350   23.8120 N   0  0  0  0  0  0  0  0  0  0  0  0
   22.7800    9.9140   23.7010 C   0  0  0  0  0  0  0  0  0  0  0  0
   22.9970    9.1110   24.7490 N   0  0  0  0  0  0  0  0  0  0  0  0
   23.0220   12.1410   25.0180 C   0  0  0  0  0  0  0  0  0  0  0  0
   20.9020   10.6270   21.0050 C   0  0  0  0  0  0  0  0  0  0  0  0
   20.2720    9.4140   20.7470 C   0  0  0  0  0  0  0  0  0  0  0  0
   18.9690    9.3760   20.2600 C   0  0  0  0  0  0  0  0  0  0  0  0
   18.2800   10.5440   20.0210 C   0  0  0  0  0  0  0  0  0  0  0  0
   18.8920   11.7530   20.2590 C   0  0  0  0  0  0  0  0  0  0  0  0
   20.1950   11.7970   20.7440 C   0  0  0  0  0  0  0  0  0  0  0  0
   23.4880   10.6920   20.5300 C   0  0  0  0  0  0  0  0  0  0  0  0
   23.2110   10.7890   19.1730 C   0  0  0  0  0  0  0  0  0  0  0  0
   24.2350   10.8650   18.2430 C   0  0  0  0  0  0  0  0  0  0  0  0
   25.5500   10.8410   18.6560 C   0  0  0  0  0  0  0  0  0  0  0  0
   25.8710   10.7460   20.0070 C   0  0  0  0  0  0  0  0  0  0  0  0
   24.8260   10.6610   20.9430 C   0  0  0  0  0  0  0  0  0  0  0  0
    0.0000    0.0000    0.0000 H   0  0  0  0  0  0  0  0  0  0  0  0
    0.0000    0.0000    0.0000 H   0  0  0  0  0  0  0  0  0  0  0  0
    0.0000    0.0000    0.0000 H   0  0  0  0  0  0  0  0  0  0  0  0
    0.0000    0.0000    0.0000 H   0  0  0  0  0  0  0  0  0  0  0  0
    0.0000    0.0000    0.0000 H   0  0  0  0  0  0  0  0  0  0  0  0
    0.0000    0.0000    0.0000 H   0  0  0  0  0  0  0  0  0  0  0  0
    0.0000    0.0000    0.0000 H   0  0  0  0  0  0  0  0  0  0  0  0
    0.0000    0.0000    0.0000 H   0  0  0  0  0  0  0  0  0  0  0  0
    0.0000    0.0000    0.0000 H   0  0  0  0  0  0  0  0  0  0  0  0
    0.0000    0.0000    0.0000 H   0  0  0  0  0  0  0  0  0  0  0  0
    0.0000    0.0000    0.0000 H   0  0  0  0  0  0  0  0  0  0  0  0
    0.0000    0.0000    0.0000 H   0  0  0  0  0  0  0  0  0  0  0  0
    0.0000    0.0000    0.0000 H   0  0  0  0  0  0  0  0  0  0  0  0
    0.0000    0.0000    0.0000 H   0  0  0  0  0  0  0  0  0  0  0  0
   12.4595    5.2866    9.0976 C   0  0  0  0  0  0  0  0  0  0  0  0
   12.7202    5.2836    7.7173 O   0  0  0  0  0  0  0  0  0  0  0  0
   13.8055    4.4400    7.5228 C   0  0  0  0  0  0  0  0  0  0  0  0
   14.2113    4.3248    6.1111 C   0  0  0  0  0  0  0  0  0  0  0  0
   15.1398    5.1790    5.5634 C   0  0  0  0  0  0  0  0  0  0  0  0
   15.4832    5.0262    4.2358 C   0  0  0  0  0  0  0  0  0  0  0  0
   14.9068    4.0339    3.4676 C   0  0  0  0  0  0  0  0  0  0  0  0
   13.9732    3.1688    4.0038 C   0  0  0  0  0  0  0  0  0  0  0  0
   13.6430    3.3374    5.3317 C   0  0  0  0  0  0  0  0  0  0  0  0
   11.5771    5.9071    9.3442 H   0  0  0  0  0  0  0  0  0  0  0  0
   12.2512    4.2386    9.3696 H   0  0  0  0  0  0  0  0  0  0  0  0
   14.6588    4.8963    8.0864 H   0  0  0  0  0  0  0  0  0  0  0  0
   13.6644    3.4345    7.9640 H   0  0  0  0  0  0  0  0  0  0  0  0
   15.5645    5.9421    6.2064 H   0  0  0  0  0  0  0  0  0  0  0  0
   16.2193    5.7105    3.8185 H   0  0  0  0  0  0  0  0  0  0  0  0
   15.1703    3.9112    2.4361 H   0  0  0  0  0  0  0  0  0  0  0  0
   13.5071    2.3782    3.4104 H   0  0  0  0  0  0  0  0  0  0  0  0
   12.9006    2.6533    5.7673 H   0  0  0  0  0  0  0  0  0  0  0  0
  1  3  2  0
  1  4  1  0
  1  5  1  0
  2  4  1  0
  2  6  1  0
  4  9  1  0
  4 15  1  0
  5  6  1  0
  5  8  1  0
  6  7  2  3
  9 10  2  0
  9 14  1  0
 10 11  1  0
 11 12  2  0
 12 13  1  0
 13 14  2  0
 15 16  2  0
 15 20  1  0
 16 17  1  0
 17 18  2  0
 18 19  1  0
 19 20  2  0
  2 21  1  0
  7 22  1  0
  8 23  1  0
  8 24  1  0
  8 25  1  0
 10 26  1  0
 11 27  1  0
 12 28  1  0
 13 29  1  0
 14 30  1  0
 16 31  1  0
 17 32  1  0
 19 33  1  0
 20 34  1  0
 35 36  1  0
 36 37  1  0
 37 38  1  0
 38 39  2  0
 39 40  1  0
 40 41  2  0
 41 42  1  0
 42 43  2  0
 43 38  1  0
 35 44  1  0
 35 45  1  0
 37 46  1  0
 37 47  1  0
 39 48  1  0
 40 49  1  0
 41 50  1  0
 42 51  1  0
 43 52  1  0
 18 35  1  0
M  END
>  <attachment_point>  (474) 
32

>  <score>  (474) 
<NA>

$$$$
4djw
     RDKit          3D

 53 56  0  0  0  0  0  0  0  0999 V2000
   22.4950   11.8750   22.5810 C   0  0  0  0  0  0  0  0  0  0  0  0
   22.5380    9.4930   22.4640 N   0  0  0  0  0  0  0  0  0  0  0  0
   22.3600   13.0630   22.3480 O   0  0  0  0  0  0  0  0  0  0  0  0
   22.3390   10.6680   21.5610 C   0  0  0  0  0  0  0  0  0  0  0  0
   22.7860   11.3350   23.8120 N   0  0  0  0  0  0  0  0  0  0  0  0
   22.7800    9.9140   23.7010 C   0  0  0  0  0  0  0  0  0  0  0  0
   22.9970    9.1110   24.7490 N   0  0  0  0  0  0  0  0  0  0  0  0
   23.0220   12.1410   25.0180 C   0  0  0  0  0  0  0  0  0  0  0  0
   20.9020   10.6270   21.0050 C   0  0  0  0  0  0  0  0  0  0  0  0
   20.2720    9.4140   20.7470 C   0  0  0  0  0  0  0  0  0  0  0  0
   18.9690    9.3760   20.2600 C   0  0  0  0  0  0  0  0  0  0  0  0
   18.2800   10.5440   20.0210 C   0  0  0  0  0  0  0  0  0  0  0  0
   18.8920   11.7530   20.2590 C   0  0  0  0  0  0  0  0  0  0  0  0
   20.1950   11.7970   20.7440 C   0  0  0  0  0  0  0  0  0  0  0  0
   23.4880   10.6920   20.5300 C   0  0  0  0  0  0  0  0  0  0  0  0
   23.2110   10.7890   19.1730 C   0  0  0  0  0  0  0  0  0  0  0  0
   24.2350   10.8650   18.2430 C   0  0  0  0  0  0  0  0  0  0  0  0
   25.5500   10.8410   18.6560 C   0  0  0  0  0  0  0  0  0  0  0  0
   25.8710   10.7460   20.0070 C   0  0  0  0  0  0  0  0  0  0  0  0
   24.8260   10.6610   20.9430 C   0  0  0  0  0  0  0  0  0  0  0  0
    0.0000    0.0000    0.0000 H   0  0  0  0  0  0  0  0  0  0  0  0
    0.0000    0.0000    0.0000 H   0  0  0  0  0  0  0  0  0  0  0  0
    0.0000    0.0000    0.0000 H   0  0  0  0  0  0  0  0  0  0  0  0
    0.0000    0.0000    0.0000 H   0  0  0  0  0  0  0  0  0  0  0  0
    0.0000    0.0000    0.0000 H   0  0  0  0  0  0  0  0  0  0  0  0
    0.0000    0.0000    0.0000 H   0  0  0  0  0  0  0  0  0  0  0  0
    0.0000    0.0000    0.0000 H   0  0  0  0  0  0  0  0  0  0  0  0
    0.0000    0.0000    0.0000 H   0  0  0  0  0  0  0  0  0  0  0  0
    0.0000    0.0000    0.0000 H   0  0  0  0  0  0  0  0  0  0  0  0
    0.0000    0.0000    0.0000 H   0  0  0  0  0  0  0  0  0  0  0  0
    0.0000    0.0000    0.0000 H   0  0  0  0  0  0  0  0  0  0  0  0
    0.0000    0.0000    0.0000 H   0  0  0  0  0  0  0  0  0  0  0  0
    0.0000    0.0000    0.0000 H   0  0  0  0  0  0  0  0  0  0  0  0
    0.0000    0.0000    0.0000 H   0  0  0  0  0  0  0  0  0  0  0  0
   12.4575    5.2858    9.0962 C   0  0  0  0  0  0  0  0  0  0  0  0
   11.7871    6.1639    8.2590 C   0  0  0  0  0  0  0  0  0  0  0  0
   10.7363    5.7193    7.4916 C   0  0  0  0  0  0  0  0  0  0  0  0
   10.3561    4.3830    7.5655 C   0  0  0  0  0  0  0  0  0  0  0  0
    9.2957    3.9368    6.7903 O   0  0  0  0  0  0  0  0  0  0  0  0
    8.9254    2.5840    6.8776 C   0  0  0  0  0  0  0  0  0  0  0  0
   11.0478    3.5301    8.4133 C   0  0  0  0  0  0  0  0  0  0  0  0
   12.1041    3.9654    9.1883 C   0  0  0  0  0  0  0  0  0  0  0  0
   12.7559    3.0643   10.0164 O   0  0  0  0  0  0  0  0  0  0  0  0
   12.4401    1.7212   10.1476 C   0  0  0  0  0  0  0  0  0  0  0  0
   12.0954    7.2200    8.2073 H   0  0  0  0  0  0  0  0  0  0  0  0
   10.1897    6.3857    6.8238 H   0  0  0  0  0  0  0  0  0  0  0  0
    8.0271    2.4369    6.2410 H   0  0  0  0  0  0  0  0  0  0  0  0
    8.7222    2.2702    7.9294 H   0  0  0  0  0  0  0  0  0  0  0  0
    9.7370    1.9073    6.4925 H   0  0  0  0  0  0  0  0  0  0  0  0
   10.7431    2.5103    8.4573 H   0  0  0  0  0  0  0  0  0  0  0  0
   11.3517    1.5061   10.1254 H   0  0  0  0  0  0  0  0  0  0  0  0
   12.9743    1.0915    9.3842 H   0  0  0  0  0  0  0  0  0  0  0  0
   12.8510    1.3773   11.1411 H   0  0  0  0  0  0  0  0  0  0  0  0
  1  3  2  0
  1  4  1  0
  1  5  1  0
  2  4  1  0
  2  6  1  0
  4  9  1  0
  4 15  1  0
  5  6  1  0
  5  8  1  0
  6  7  2  3
  9 10  2  0
  9 14  1  0
 10 11  1  0
 11 12  2  0
 12 13  1  0
 13 14  2  0
 15 16  2  0
 15 20  1  0
 16 17  1  0
 17 18  2  0
 18 19  1  0
 19 20  2  0
  2 21  1  0
  7 22  1  0
  8 23  1  0
  8 24  1  0
  8 25  1  0
 10 26  1  0
 11 27  1  0
 12 28  1  0
 13 29  1  0
 14 30  1  0
 16 31  1  0
 17 32  1  0
 19 33  1  0
 20 34  1  0
 35 36  2  0
 36 37  1  0
 37 38  2  0
 38 39  1  0
 39 40  1  0
 38 41  1  0
 41 42  2  0
 42 43  1  0
 43 44  1  0
 42 35  1  0
 36 45  1  0
 37 46  1  0
 40 47  1  0
 40 48  1  0
 40 49  1  0
 41 50  1  0
 44 51  1  0
 44 52  1  0
 44 53  1  0
 18 35  1  0
M  END
>  <attachment_point>  (475) 
32

>  <score>  (475) 
<NA>

$$$$
4djw
     RDKit          3D

 47 50  0  0  0  0  0  0  0  0999 V2000
   22.4950   11.8750   22.5810 C   0  0  0  0  0  0  0  0  0  0  0  0
   22.5380    9.4930   22.4640 N   0  0  0  0  0  0  0  0  0  0  0  0
   22.3600   13.0630   22.3480 O   0  0  0  0  0  0  0  0  0  0  0  0
   22.3390   10.6680   21.5610 C   0  0  0  0  0  0  0  0  0  0  0  0
   22.7860   11.3350   23.8120 N   0  0  0  0  0  0  0  0  0  0  0  0
   22.7800    9.9140   23.7010 C   0  0  0  0  0  0  0  0  0  0  0  0
   22.9970    9.1110   24.7490 N   0  0  0  0  0  0  0  0  0  0  0  0
   23.0220   12.1410   25.0180 C   0  0  0  0  0  0  0  0  0  0  0  0
   20.9020   10.6270   21.0050 C   0  0  0  0  0  0  0  0  0  0  0  0
   20.2720    9.4140   20.7470 C   0  0  0  0  0  0  0  0  0  0  0  0
   18.9690    9.3760   20.2600 C   0  0  0  0  0  0  0  0  0  0  0  0
   18.2800   10.5440   20.0210 C   0  0  0  0  0  0  0  0  0  0  0  0
   18.8920   11.7530   20.2590 C   0  0  0  0  0  0  0  0  0  0  0  0
   20.1950   11.7970   20.7440 C   0  0  0  0  0  0  0  0  0  0  0  0
   23.4880   10.6920   20.5300 C   0  0  0  0  0  0  0  0  0  0  0  0
   23.2110   10.7890   19.1730 C   0  0  0  0  0  0  0  0  0  0  0  0
   24.2350   10.8650   18.2430 C   0  0  0  0  0  0  0  0  0  0  0  0
   25.5500   10.8410   18.6560 C   0  0  0  0  0  0  0  0  0  0  0  0
   25.8710   10.7460   20.0070 C   0  0  0  0  0  0  0  0  0  0  0  0
   24.8260   10.6610   20.9430 C   0  0  0  0  0  0  0  0  0  0  0  0
    0.0000    0.0000    0.0000 H   0  0  0  0  0  0  0  0  0  0  0  0
    0.0000    0.0000    0.0000 H   0  0  0  0  0  0  0  0  0  0  0  0
    0.0000    0.0000    0.0000 H   0  0  0  0  0  0  0  0  0  0  0  0
    0.0000    0.0000    0.0000 H   0  0  0  0  0  0  0  0  0  0  0  0
    0.0000    0.0000    0.0000 H   0  0  0  0  0  0  0  0  0  0  0  0
    0.0000    0.0000    0.0000 H   0  0  0  0  0  0  0  0  0  0  0  0
    0.0000    0.0000    0.0000 H   0  0  0  0  0  0  0  0  0  0  0  0
    0.0000    0.0000    0.0000 H   0  0  0  0  0  0  0  0  0  0  0  0
    0.0000    0.0000    0.0000 H   0  0  0  0  0  0  0  0  0  0  0  0
    0.0000    0.0000    0.0000 H   0  0  0  0  0  0  0  0  0  0  0  0
    0.0000    0.0000    0.0000 H   0  0  0  0  0  0  0  0  0  0  0  0
    0.0000    0.0000    0.0000 H   0  0  0  0  0  0  0  0  0  0  0  0
    0.0000    0.0000    0.0000 H   0  0  0  0  0  0  0  0  0  0  0  0
    0.0000    0.0000    0.0000 H   0  0  0  0  0  0  0  0  0  0  0  0
   12.4250    5.2720    9.0725 C   0  0  0  0  0  0  0  0  0  0  0  0
   11.4962    4.4575    9.6391 C   0  0  0  0  0  0  0  0  0  0  0  0
   10.4085    3.9671    8.9300 C   0  0  0  0  0  0  0  0  0  0  0  0
    9.4263    3.0787    9.6095 C   0  0  0  0  0  0  0  0  0  0  0  0
   10.3038    4.3395    7.6191 C   0  0  0  0  0  0  0  0  0  0  0  0
   11.2656    5.1673    7.0784 C   0  0  0  0  0  0  0  0  0  0  0  0
   12.3192    5.6316    7.7969 N   0  0  0  0  0  0  0  0  0  0  0  0
   11.6104    4.1859   10.6704 H   0  0  0  0  0  0  0  0  0  0  0  0
    8.4829    3.0236    9.0336 H   0  0  0  0  0  0  0  0  0  0  0  0
    9.8855    2.0747    9.7812 H   0  0  0  0  0  0  0  0  0  0  0  0
    9.1666    3.4604   10.6246 H   0  0  0  0  0  0  0  0  0  0  0  0
    9.4718    3.9843    7.0179 H   0  0  0  0  0  0  0  0  0  0  0  0
   11.1466    5.4439    6.0228 H   0  0  0  0  0  0  0  0  0  0  0  0
  1  3  2  0
  1  4  1  0
  1  5  1  0
  2  4  1  0
  2  6  1  0
  4  9  1  0
  4 15  1  0
  5  6  1  0
  5  8  1  0
  6  7  2  3
  9 10  2  0
  9 14  1  0
 10 11  1  0
 11 12  2  0
 12 13  1  0
 13 14  2  0
 15 16  2  0
 15 20  1  0
 16 17  1  0
 17 18  2  0
 18 19  1  0
 19 20  2  0
  2 21  1  0
  7 22  1  0
  8 23  1  0
  8 24  1  0
  8 25  1  0
 10 26  1  0
 11 27  1  0
 12 28  1  0
 13 29  1  0
 14 30  1  0
 16 31  1  0
 17 32  1  0
 19 33  1  0
 20 34  1  0
 35 36  2  0
 36 37  1  0
 37 38  1  0
 37 39  2  0
 39 40  1  0
 40 41  2  0
 41 35  1  0
 36 42  1  0
 38 43  1  0
 38 44  1  0
 38 45  1  0
 39 46  1  0
 40 47  1  0
 18 35  1  0
M  END
>  <attachment_point>  (476) 
32

>  <score>  (476) 
<NA>

$$$$
4djw
     RDKit          3D

 39 41  0  0  0  0  0  0  0  0999 V2000
   22.4950   11.8750   22.5810 C   0  0  0  0  0  0  0  0  0  0  0  0
   22.5380    9.4930   22.4640 N   0  0  0  0  0  0  0  0  0  0  0  0
   22.3600   13.0630   22.3480 O   0  0  0  0  0  0  0  0  0  0  0  0
   22.3390   10.6680   21.5610 C   0  0  0  0  0  0  0  0  0  0  0  0
   22.7860   11.3350   23.8120 N   0  0  0  0  0  0  0  0  0  0  0  0
   22.7800    9.9140   23.7010 C   0  0  0  0  0  0  0  0  0  0  0  0
   22.9970    9.1110   24.7490 N   0  0  0  0  0  0  0  0  0  0  0  0
   23.0220   12.1410   25.0180 C   0  0  0  0  0  0  0  0  0  0  0  0
   20.9020   10.6270   21.0050 C   0  0  0  0  0  0  0  0  0  0  0  0
   20.2720    9.4140   20.7470 C   0  0  0  0  0  0  0  0  0  0  0  0
   18.9690    9.3760   20.2600 C   0  0  0  0  0  0  0  0  0  0  0  0
   18.2800   10.5440   20.0210 C   0  0  0  0  0  0  0  0  0  0  0  0
   18.8920   11.7530   20.2590 C   0  0  0  0  0  0  0  0  0  0  0  0
   20.1950   11.7970   20.7440 C   0  0  0  0  0  0  0  0  0  0  0  0
   23.4880   10.6920   20.5300 C   0  0  0  0  0  0  0  0  0  0  0  0
   23.2110   10.7890   19.1730 C   0  0  0  0  0  0  0  0  0  0  0  0
   24.2350   10.8650   18.2430 C   0  0  0  0  0  0  0  0  0  0  0  0
   25.5500   10.8410   18.6560 C   0  0  0  0  0  0  0  0  0  0  0  0
   25.8710   10.7460   20.0070 C   0  0  0  0  0  0  0  0  0  0  0  0
   24.8260   10.6610   20.9430 C   0  0  0  0  0  0  0  0  0  0  0  0
    0.0000    0.0000    0.0000 H   0  0  0  0  0  0  0  0  0  0  0  0
    0.0000    0.0000    0.0000 H   0  0  0  0  0  0  0  0  0  0  0  0
    0.0000    0.0000    0.0000 H   0  0  0  0  0  0  0  0  0  0  0  0
    0.0000    0.0000    0.0000 H   0  0  0  0  0  0  0  0  0  0  0  0
    0.0000    0.0000    0.0000 H   0  0  0  0  0  0  0  0  0  0  0  0
    0.0000    0.0000    0.0000 H   0  0  0  0  0  0  0  0  0  0  0  0
    0.0000    0.0000    0.0000 H   0  0  0  0  0  0  0  0  0  0  0  0
    0.0000    0.0000    0.0000 H   0  0  0  0  0  0  0  0  0  0  0  0
    0.0000    0.0000    0.0000 H   0  0  0  0  0  0  0  0  0  0  0  0
    0.0000    0.0000    0.0000 H   0  0  0  0  0  0  0  0  0  0  0  0
    0.0000    0.0000    0.0000 H   0  0  0  0  0  0  0  0  0  0  0  0
    0.0000    0.0000    0.0000 H   0  0  0  0  0  0  0  0  0  0  0  0
    0.0000    0.0000    0.0000 H   0  0  0  0  0  0  0  0  0  0  0  0
    0.0000    0.0000    0.0000 H   0  0  0  0  0  0  0  0  0  0  0  0
   12.5045    5.3057    9.1305 N   0  0  0  0  0  0  0  0  0  0  0  0
   11.2490    5.8090    9.3798 N   0  0  0  0  0  0  0  0  0  0  0  0
   12.6253    5.2145    8.0846 H   0  0  0  0  0  0  0  0  0  0  0  0
   11.1526    6.8270    9.3526 H   0  0  0  0  0  0  0  0  0  0  0  0
   10.6821    5.3029   10.0617 H   0  0  0  0  0  0  0  0  0  0  0  0
  1  3  2  0
  1  4  1  0
  1  5  1  0
  2  4  1  0
  2  6  1  0
  4  9  1  0
  4 15  1  0
  5  6  1  0
  5  8  1  0
  6  7  2  3
  9 10  2  0
  9 14  1  0
 10 11  1  0
 11 12  2  0
 12 13  1  0
 13 14  2  0
 15 16  2  0
 15 20  1  0
 16 17  1  0
 17 18  2  0
 18 19  1  0
 19 20  2  0
  2 21  1  0
  7 22  1  0
  8 23  1  0
  8 24  1  0
  8 25  1  0
 10 26  1  0
 11 27  1  0
 12 28  1  0
 13 29  1  0
 14 30  1  0
 16 31  1  0
 17 32  1  0
 19 33  1  0
 20 34  1  0
 35 36  1  0
 35 37  1  0
 36 38  1  0
 36 39  1  0
 18 35  1  0
M  END
>  <attachment_point>  (477) 
32

>  <score>  (477) 
<NA>

$$$$
4djw
     RDKit          3D

 51 54  0  0  0  0  0  0  0  0999 V2000
   22.4950   11.8750   22.5810 C   0  0  0  0  0  0  0  0  0  0  0  0
   22.5380    9.4930   22.4640 N   0  0  0  0  0  0  0  0  0  0  0  0
   22.3600   13.0630   22.3480 O   0  0  0  0  0  0  0  0  0  0  0  0
   22.3390   10.6680   21.5610 C   0  0  0  0  0  0  0  0  0  0  0  0
   22.7860   11.3350   23.8120 N   0  0  0  0  0  0  0  0  0  0  0  0
   22.7800    9.9140   23.7010 C   0  0  0  0  0  0  0  0  0  0  0  0
   22.9970    9.1110   24.7490 N   0  0  0  0  0  0  0  0  0  0  0  0
   23.0220   12.1410   25.0180 C   0  0  0  0  0  0  0  0  0  0  0  0
   20.9020   10.6270   21.0050 C   0  0  0  0  0  0  0  0  0  0  0  0
   20.2720    9.4140   20.7470 C   0  0  0  0  0  0  0  0  0  0  0  0
   18.9690    9.3760   20.2600 C   0  0  0  0  0  0  0  0  0  0  0  0
   18.2800   10.5440   20.0210 C   0  0  0  0  0  0  0  0  0  0  0  0
   18.8920   11.7530   20.2590 C   0  0  0  0  0  0  0  0  0  0  0  0
   20.1950   11.7970   20.7440 C   0  0  0  0  0  0  0  0  0  0  0  0
   23.4880   10.6920   20.5300 C   0  0  0  0  0  0  0  0  0  0  0  0
   23.2110   10.7890   19.1730 C   0  0  0  0  0  0  0  0  0  0  0  0
   24.2350   10.8650   18.2430 C   0  0  0  0  0  0  0  0  0  0  0  0
   25.5500   10.8410   18.6560 C   0  0  0  0  0  0  0  0  0  0  0  0
   25.8710   10.7460   20.0070 C   0  0  0  0  0  0  0  0  0  0  0  0
   24.8260   10.6610   20.9430 C   0  0  0  0  0  0  0  0  0  0  0  0
    0.0000    0.0000    0.0000 H   0  0  0  0  0  0  0  0  0  0  0  0
    0.0000    0.0000    0.0000 H   0  0  0  0  0  0  0  0  0  0  0  0
    0.0000    0.0000    0.0000 H   0  0  0  0  0  0  0  0  0  0  0  0
    0.0000    0.0000    0.0000 H   0  0  0  0  0  0  0  0  0  0  0  0
    0.0000    0.0000    0.0000 H   0  0  0  0  0  0  0  0  0  0  0  0
    0.0000    0.0000    0.0000 H   0  0  0  0  0  0  0  0  0  0  0  0
    0.0000    0.0000    0.0000 H   0  0  0  0  0  0  0  0  0  0  0  0
    0.0000    0.0000    0.0000 H   0  0  0  0  0  0  0  0  0  0  0  0
    0.0000    0.0000    0.0000 H   0  0  0  0  0  0  0  0  0  0  0  0
    0.0000    0.0000    0.0000 H   0  0  0  0  0  0  0  0  0  0  0  0
    0.0000    0.0000    0.0000 H   0  0  0  0  0  0  0  0  0  0  0  0
    0.0000    0.0000    0.0000 H   0  0  0  0  0  0  0  0  0  0  0  0
    0.0000    0.0000    0.0000 H   0  0  0  0  0  0  0  0  0  0  0  0
    0.0000    0.0000    0.0000 H   0  0  0  0  0  0  0  0  0  0  0  0
   12.3685    5.2480    9.0312 C   0  0  0  0  0  0  0  0  0  0  0  0
   12.6173    4.1987    8.2418 C   0  0  0  0  0  0  0  0  0  0  0  0
   11.5069    3.7735    7.4695 C   0  0  0  0  0  0  0  0  0  0  0  0
   10.3024    4.4290    7.5710 C   0  0  0  0  0  0  0  0  0  0  0  0
   10.1085    5.4951    8.3951 C   0  0  0  0  0  0  0  0  0  0  0  0
    8.6071    6.3703    8.5702 S   0  0  0  0  0  6  0  0  0  0  0  0
    7.5955    5.6700    9.8539 C   0  0  0  0  0  0  0  0  0  0  0  0
    7.8067    6.3695    7.3029 O   0  0  0  0  0  0  0  0  0  0  0  0
    8.9391    7.7836    8.9580 O   0  0  0  0  0  0  0  0  0  0  0  0
   11.2164    5.9155    9.1623 C   0  0  0  0  0  0  0  0  0  0  0  0
   13.5659    3.6981    8.1750 H   0  0  0  0  0  0  0  0  0  0  0  0
   11.6310    2.9329    6.8091 H   0  0  0  0  0  0  0  0  0  0  0  0
    9.4671    4.0850    6.9698 H   0  0  0  0  0  0  0  0  0  0  0  0
    8.0835    5.7189   10.8485 H   0  0  0  0  0  0  0  0  0  0  0  0
    6.6851    6.3028    9.9235 H   0  0  0  0  0  0  0  0  0  0  0  0
    7.2529    4.6492    9.5977 H   0  0  0  0  0  0  0  0  0  0  0  0
   11.0842    6.7659    9.8280 H   0  0  0  0  0  0  0  0  0  0  0  0
  1  3  2  0
  1  4  1  0
  1  5  1  0
  2  4  1  0
  2  6  1  0
  4  9  1  0
  4 15  1  0
  5  6  1  0
  5  8  1  0
  6  7  2  3
  9 10  2  0
  9 14  1  0
 10 11  1  0
 11 12  2  0
 12 13  1  0
 13 14  2  0
 15 16  2  0
 15 20  1  0
 16 17  1  0
 17 18  2  0
 18 19  1  0
 19 20  2  0
  2 21  1  0
  7 22  1  0
  8 23  1  0
  8 24  1  0
  8 25  1  0
 10 26  1  0
 11 27  1  0
 12 28  1  0
 13 29  1  0
 14 30  1  0
 16 31  1  0
 17 32  1  0
 19 33  1  0
 20 34  1  0
 35 36  2  0
 36 37  1  0
 37 38  2  0
 38 39  1  0
 39 40  1  0
 40 41  1  0
 40 42  2  0
 40 43  2  0
 39 44  2  0
 44 35  1  0
 36 45  1  0
 37 46  1  0
 38 47  1  0
 41 48  1  0
 41 49  1  0
 41 50  1  0
 44 51  1  0
 18 35  1  0
M  END
>  <attachment_point>  (478) 
32

>  <score>  (478) 
<NA>

$$$$
4djw
     RDKit          3D

 57 60  0  0  0  0  0  0  0  0999 V2000
   22.4950   11.8750   22.5810 C   0  0  0  0  0  0  0  0  0  0  0  0
   22.5380    9.4930   22.4640 N   0  0  0  0  0  0  0  0  0  0  0  0
   22.3600   13.0630   22.3480 O   0  0  0  0  0  0  0  0  0  0  0  0
   22.3390   10.6680   21.5610 C   0  0  0  0  0  0  0  0  0  0  0  0
   22.7860   11.3350   23.8120 N   0  0  0  0  0  0  0  0  0  0  0  0
   22.7800    9.9140   23.7010 C   0  0  0  0  0  0  0  0  0  0  0  0
   22.9970    9.1110   24.7490 N   0  0  0  0  0  0  0  0  0  0  0  0
   23.0220   12.1410   25.0180 C   0  0  0  0  0  0  0  0  0  0  0  0
   20.9020   10.6270   21.0050 C   0  0  0  0  0  0  0  0  0  0  0  0
   20.2720    9.4140   20.7470 C   0  0  0  0  0  0  0  0  0  0  0  0
   18.9690    9.3760   20.2600 C   0  0  0  0  0  0  0  0  0  0  0  0
   18.2800   10.5440   20.0210 C   0  0  0  0  0  0  0  0  0  0  0  0
   18.8920   11.7530   20.2590 C   0  0  0  0  0  0  0  0  0  0  0  0
   20.1950   11.7970   20.7440 C   0  0  0  0  0  0  0  0  0  0  0  0
   23.4880   10.6920   20.5300 C   0  0  0  0  0  0  0  0  0  0  0  0
   23.2110   10.7890   19.1730 C   0  0  0  0  0  0  0  0  0  0  0  0
   24.2350   10.8650   18.2430 C   0  0  0  0  0  0  0  0  0  0  0  0
   25.5500   10.8410   18.6560 C   0  0  0  0  0  0  0  0  0  0  0  0
   25.8710   10.7460   20.0070 C   0  0  0  0  0  0  0  0  0  0  0  0
   24.8260   10.6610   20.9430 C   0  0  0  0  0  0  0  0  0  0  0  0
    0.0000    0.0000    0.0000 H   0  0  0  0  0  0  0  0  0  0  0  0
    0.0000    0.0000    0.0000 H   0  0  0  0  0  0  0  0  0  0  0  0
    0.0000    0.0000    0.0000 H   0  0  0  0  0  0  0  0  0  0  0  0
    0.0000    0.0000    0.0000 H   0  0  0  0  0  0  0  0  0  0  0  0
    0.0000    0.0000    0.0000 H   0  0  0  0  0  0  0  0  0  0  0  0
    0.0000    0.0000    0.0000 H   0  0  0  0  0  0  0  0  0  0  0  0
    0.0000    0.0000    0.0000 H   0  0  0  0  0  0  0  0  0  0  0  0
    0.0000    0.0000    0.0000 H   0  0  0  0  0  0  0  0  0  0  0  0
    0.0000    0.0000    0.0000 H   0  0  0  0  0  0  0  0  0  0  0  0
    0.0000    0.0000    0.0000 H   0  0  0  0  0  0  0  0  0  0  0  0
    0.0000    0.0000    0.0000 H   0  0  0  0  0  0  0  0  0  0  0  0
    0.0000    0.0000    0.0000 H   0  0  0  0  0  0  0  0  0  0  0  0
    0.0000    0.0000    0.0000 H   0  0  0  0  0  0  0  0  0  0  0  0
    0.0000    0.0000    0.0000 H   0  0  0  0  0  0  0  0  0  0  0  0
   12.3805    5.2531    9.0400 N   0  0  0  0  0  0  0  0  0  0  0  0
   12.7397    4.2532    8.1642 C   0  0  0  0  0  0  0  0  0  0  0  0
   13.9049    3.7793    8.0588 O   0  0  0  0  0  0  0  0  0  0  0  0
   11.7512    3.6788    7.2891 N   0  0  0  0  0  0  0  0  0  0  0  0
   12.0666    2.6359    6.3575 C   0  0  0  0  0  0  0  0  0  0  0  0
   11.2933    1.3584    6.6401 C   0  0  0  0  0  0  0  0  0  0  0  0
   11.7849    0.3229    5.6418 C   0  0  0  0  0  0  0  0  0  0  0  0
   11.1761    0.6896    4.3042 C   0  0  0  0  0  0  0  0  0  0  0  0
   10.7691    2.1464    4.2614 C   0  0  0  0  0  0  0  0  0  0  0  0
   11.7976    3.0205    4.9289 C   0  0  0  0  0  0  0  0  0  0  0  0
   11.5374    5.7031    9.2221 H   0  0  0  0  0  0  0  0  0  0  0  0
   10.7956    4.0758    7.3835 H   0  0  0  0  0  0  0  0  0  0  0  0
   13.1379    2.3704    6.4295 H   0  0  0  0  0  0  0  0  0  0  0  0
   11.4238    1.0172    7.6852 H   0  0  0  0  0  0  0  0  0  0  0  0
   10.2126    1.5691    6.5098 H   0  0  0  0  0  0  0  0  0  0  0  0
   11.5513   -0.7056    5.9497 H   0  0  0  0  0  0  0  0  0  0  0  0
   12.8874    0.4689    5.5416 H   0  0  0  0  0  0  0  0  0  0  0  0
   11.9055    0.5335    3.4823 H   0  0  0  0  0  0  0  0  0  0  0  0
   10.3017    0.0655    4.0927 H   0  0  0  0  0  0  0  0  0  0  0  0
    9.7500    2.2854    4.6566 H   0  0  0  0  0  0  0  0  0  0  0  0
   10.7356    2.4433    3.1926 H   0  0  0  0  0  0  0  0  0  0  0  0
   12.7288    2.9603    4.2920 H   0  0  0  0  0  0  0  0  0  0  0  0
   11.4110    4.0622    4.9370 H   0  0  0  0  0  0  0  0  0  0  0  0
  1  3  2  0
  1  4  1  0
  1  5  1  0
  2  4  1  0
  2  6  1  0
  4  9  1  0
  4 15  1  0
  5  6  1  0
  5  8  1  0
  6  7  2  3
  9 10  2  0
  9 14  1  0
 10 11  1  0
 11 12  2  0
 12 13  1  0
 13 14  2  0
 15 16  2  0
 15 20  1  0
 16 17  1  0
 17 18  2  0
 18 19  1  0
 19 20  2  0
  2 21  1  0
  7 22  1  0
  8 23  1  0
  8 24  1  0
  8 25  1  0
 10 26  1  0
 11 27  1  0
 12 28  1  0
 13 29  1  0
 14 30  1  0
 16 31  1  0
 17 32  1  0
 19 33  1  0
 20 34  1  0
 35 36  1  0
 36 37  2  0
 36 38  1  0
 38 39  1  0
 39 40  1  0
 40 41  1  0
 41 42  1  0
 42 43  1  0
 43 44  1  0
 44 39  1  0
 35 45  1  0
 38 46  1  0
 39 47  1  0
 40 48  1  0
 40 49  1  0
 41 50  1  0
 41 51  1  0
 42 52  1  0
 42 53  1  0
 43 54  1  0
 43 55  1  0
 44 56  1  0
 44 57  1  0
 18 35  1  0
M  END
>  <attachment_point>  (479) 
32

>  <score>  (479) 
<NA>

$$$$
4djw
     RDKit          3D

 42 44  0  0  0  0  0  0  0  0999 V2000
   22.4950   11.8750   22.5810 C   0  0  0  0  0  0  0  0  0  0  0  0
   22.5380    9.4930   22.4640 N   0  0  0  0  0  0  0  0  0  0  0  0
   22.3600   13.0630   22.3480 O   0  0  0  0  0  0  0  0  0  0  0  0
   22.3390   10.6680   21.5610 C   0  0  0  0  0  0  0  0  0  0  0  0
   22.7860   11.3350   23.8120 N   0  0  0  0  0  0  0  0  0  0  0  0
   22.7800    9.9140   23.7010 C   0  0  0  0  0  0  0  0  0  0  0  0
   22.9970    9.1110   24.7490 N   0  0  0  0  0  0  0  0  0  0  0  0
   23.0220   12.1410   25.0180 C   0  0  0  0  0  0  0  0  0  0  0  0
   20.9020   10.6270   21.0050 C   0  0  0  0  0  0  0  0  0  0  0  0
   20.2720    9.4140   20.7470 C   0  0  0  0  0  0  0  0  0  0  0  0
   18.9690    9.3760   20.2600 C   0  0  0  0  0  0  0  0  0  0  0  0
   18.2800   10.5440   20.0210 C   0  0  0  0  0  0  0  0  0  0  0  0
   18.8920   11.7530   20.2590 C   0  0  0  0  0  0  0  0  0  0  0  0
   20.1950   11.7970   20.7440 C   0  0  0  0  0  0  0  0  0  0  0  0
   23.4880   10.6920   20.5300 C   0  0  0  0  0  0  0  0  0  0  0  0
   23.2110   10.7890   19.1730 C   0  0  0  0  0  0  0  0  0  0  0  0
   24.2350   10.8650   18.2430 C   0  0  0  0  0  0  0  0  0  0  0  0
   25.5500   10.8410   18.6560 C   0  0  0  0  0  0  0  0  0  0  0  0
   25.8710   10.7460   20.0070 C   0  0  0  0  0  0  0  0  0  0  0  0
   24.8260   10.6610   20.9430 C   0  0  0  0  0  0  0  0  0  0  0  0
    0.0000    0.0000    0.0000 H   0  0  0  0  0  0  0  0  0  0  0  0
    0.0000    0.0000    0.0000 H   0  0  0  0  0  0  0  0  0  0  0  0
    0.0000    0.0000    0.0000 H   0  0  0  0  0  0  0  0  0  0  0  0
    0.0000    0.0000    0.0000 H   0  0  0  0  0  0  0  0  0  0  0  0
    0.0000    0.0000    0.0000 H   0  0  0  0  0  0  0  0  0  0  0  0
    0.0000    0.0000    0.0000 H   0  0  0  0  0  0  0  0  0  0  0  0
    0.0000    0.0000    0.0000 H   0  0  0  0  0  0  0  0  0  0  0  0
    0.0000    0.0000    0.0000 H   0  0  0  0  0  0  0  0  0  0  0  0
    0.0000    0.0000    0.0000 H   0  0  0  0  0  0  0  0  0  0  0  0
    0.0000    0.0000    0.0000 H   0  0  0  0  0  0  0  0  0  0  0  0
    0.0000    0.0000    0.0000 H   0  0  0  0  0  0  0  0  0  0  0  0
    0.0000    0.0000    0.0000 H   0  0  0  0  0  0  0  0  0  0  0  0
    0.0000    0.0000    0.0000 H   0  0  0  0  0  0  0  0  0  0  0  0
    0.0000    0.0000    0.0000 H   0  0  0  0  0  0  0  0  0  0  0  0
   12.3820    5.2538    9.0411 S   0  0  0  0  0  0  0  0  0  0  0  0
   12.2006    6.5403    7.7601 C   0  0  0  0  0  0  0  0  0  0  0  0
   13.1609    6.2983    6.6049 C   0  0  0  0  0  0  0  0  0  0  0  0
   11.1476    6.5125    7.4413 H   0  0  0  0  0  0  0  0  0  0  0  0
   12.4752    7.5258    8.1950 H   0  0  0  0  0  0  0  0  0  0  0  0
   13.5636    7.2502    6.2295 H   0  0  0  0  0  0  0  0  0  0  0  0
   13.9633    5.6402    7.0135 H   0  0  0  0  0  0  0  0  0  0  0  0
   12.6972    5.7469    5.7728 H   0  0  0  0  0  0  0  0  0  0  0  0
  1  3  2  0
  1  4  1  0
  1  5  1  0
  2  4  1  0
  2  6  1  0
  4  9  1  0
  4 15  1  0
  5  6  1  0
  5  8  1  0
  6  7  2  3
  9 10  2  0
  9 14  1  0
 10 11  1  0
 11 12  2  0
 12 13  1  0
 13 14  2  0
 15 16  2  0
 15 20  1  0
 16 17  1  0
 17 18  2  0
 18 19  1  0
 19 20  2  0
  2 21  1  0
  7 22  1  0
  8 23  1  0
  8 24  1  0
  8 25  1  0
 10 26  1  0
 11 27  1  0
 12 28  1  0
 13 29  1  0
 14 30  1  0
 16 31  1  0
 17 32  1  0
 19 33  1  0
 20 34  1  0
 35 36  1  0
 36 37  1  0
 36 38  1  0
 36 39  1  0
 37 40  1  0
 37 41  1  0
 37 42  1  0
 18 35  1  0
M  END
>  <attachment_point>  (480) 
32

>  <score>  (480) 
<NA>

$$$$
4djw
     RDKit          3D

 52 54  0  0  0  0  0  0  0  0999 V2000
   22.4950   11.8750   22.5810 C   0  0  0  0  0  0  0  0  0  0  0  0
   22.5380    9.4930   22.4640 N   0  0  0  0  0  0  0  0  0  0  0  0
   22.3600   13.0630   22.3480 O   0  0  0  0  0  0  0  0  0  0  0  0
   22.3390   10.6680   21.5610 C   0  0  0  0  0  0  0  0  0  0  0  0
   22.7860   11.3350   23.8120 N   0  0  0  0  0  0  0  0  0  0  0  0
   22.7800    9.9140   23.7010 C   0  0  0  0  0  0  0  0  0  0  0  0
   22.9970    9.1110   24.7490 N   0  0  0  0  0  0  0  0  0  0  0  0
   23.0220   12.1410   25.0180 C   0  0  0  0  0  0  0  0  0  0  0  0
   20.9020   10.6270   21.0050 C   0  0  0  0  0  0  0  0  0  0  0  0
   20.2720    9.4140   20.7470 C   0  0  0  0  0  0  0  0  0  0  0  0
   18.9690    9.3760   20.2600 C   0  0  0  0  0  0  0  0  0  0  0  0
   18.2800   10.5440   20.0210 C   0  0  0  0  0  0  0  0  0  0  0  0
   18.8920   11.7530   20.2590 C   0  0  0  0  0  0  0  0  0  0  0  0
   20.1950   11.7970   20.7440 C   0  0  0  0  0  0  0  0  0  0  0  0
   23.4880   10.6920   20.5300 C   0  0  0  0  0  0  0  0  0  0  0  0
   23.2110   10.7890   19.1730 C   0  0  0  0  0  0  0  0  0  0  0  0
   24.2350   10.8650   18.2430 C   0  0  0  0  0  0  0  0  0  0  0  0
   25.5500   10.8410   18.6560 C   0  0  0  0  0  0  0  0  0  0  0  0
   25.8710   10.7460   20.0070 C   0  0  0  0  0  0  0  0  0  0  0  0
   24.8260   10.6610   20.9430 C   0  0  0  0  0  0  0  0  0  0  0  0
    0.0000    0.0000    0.0000 H   0  0  0  0  0  0  0  0  0  0  0  0
    0.0000    0.0000    0.0000 H   0  0  0  0  0  0  0  0  0  0  0  0
    0.0000    0.0000    0.0000 H   0  0  0  0  0  0  0  0  0  0  0  0
    0.0000    0.0000    0.0000 H   0  0  0  0  0  0  0  0  0  0  0  0
    0.0000    0.0000    0.0000 H   0  0  0  0  0  0  0  0  0  0  0  0
    0.0000    0.0000    0.0000 H   0  0  0  0  0  0  0  0  0  0  0  0
    0.0000    0.0000    0.0000 H   0  0  0  0  0  0  0  0  0  0  0  0
    0.0000    0.0000    0.0000 H   0  0  0  0  0  0  0  0  0  0  0  0
    0.0000    0.0000    0.0000 H   0  0  0  0  0  0  0  0  0  0  0  0
    0.0000    0.0000    0.0000 H   0  0  0  0  0  0  0  0  0  0  0  0
    0.0000    0.0000    0.0000 H   0  0  0  0  0  0  0  0  0  0  0  0
    0.0000    0.0000    0.0000 H   0  0  0  0  0  0  0  0  0  0  0  0
    0.0000    0.0000    0.0000 H   0  0  0  0  0  0  0  0  0  0  0  0
    0.0000    0.0000    0.0000 H   0  0  0  0  0  0  0  0  0  0  0  0
   12.4616    5.2875    9.0992 C   0  0  0  0  0  0  0  0  0  0  0  0
   11.6050    4.3815    9.9993 C   0  0  0  0  0  0  0  0  0  0  0  0
   11.1292    5.2025   11.1574 C   0  0  0  0  0  0  0  0  0  0  0  0
   10.2822    4.4941   12.1485 C   0  0  0  0  0  0  0  0  0  0  0  0
    9.0350    3.9827   11.5813 C   0  0  0  0  0  0  0  0  0  0  0  0
    8.7199    4.2015   10.4035 O   0  0  0  0  0  0  0  0  0  0  0  0
    8.1157    3.1962   12.3806 N   0  0  0  0  0  0  0  0  0  0  0  0
    6.9763    2.7349   11.8451 O   0  0  0  0  0  0  0  0  0  0  0  0
   11.8217    6.1278    8.7945 H   0  0  0  0  0  0  0  0  0  0  0  0
   12.8084    4.6778    8.2373 H   0  0  0  0  0  0  0  0  0  0  0  0
   12.3149    3.5746   10.3174 H   0  0  0  0  0  0  0  0  0  0  0  0
   10.7517    3.9795    9.4316 H   0  0  0  0  0  0  0  0  0  0  0  0
   11.9943    5.6775   11.6992 H   0  0  0  0  0  0  0  0  0  0  0  0
   10.5400    6.0960   10.7922 H   0  0  0  0  0  0  0  0  0  0  0  0
   10.0779    5.2291   12.9768 H   0  0  0  0  0  0  0  0  0  0  0  0
   10.8706    3.6256   12.5587 H   0  0  0  0  0  0  0  0  0  0  0  0
    8.4108    3.0309   13.3658 H   0  0  0  0  0  0  0  0  0  0  0  0
    6.7749    1.8509   12.2330 H   0  0  0  0  0  0  0  0  0  0  0  0
  1  3  2  0
  1  4  1  0
  1  5  1  0
  2  4  1  0
  2  6  1  0
  4  9  1  0
  4 15  1  0
  5  6  1  0
  5  8  1  0
  6  7  2  3
  9 10  2  0
  9 14  1  0
 10 11  1  0
 11 12  2  0
 12 13  1  0
 13 14  2  0
 15 16  2  0
 15 20  1  0
 16 17  1  0
 17 18  2  0
 18 19  1  0
 19 20  2  0
  2 21  1  0
  7 22  1  0
  8 23  1  0
  8 24  1  0
  8 25  1  0
 10 26  1  0
 11 27  1  0
 12 28  1  0
 13 29  1  0
 14 30  1  0
 16 31  1  0
 17 32  1  0
 19 33  1  0
 20 34  1  0
 35 36  1  0
 36 37  1  0
 37 38  1  0
 38 39  1  0
 39 40  2  0
 39 41  1  0
 41 42  1  0
 35 43  1  0
 35 44  1  0
 36 45  1  0
 36 46  1  0
 37 47  1  0
 37 48  1  0
 38 49  1  0
 38 50  1  0
 41 51  1  0
 42 52  1  0
 18 35  1  0
M  END
>  <attachment_point>  (481) 
32

>  <score>  (481) 
<NA>

$$$$
4djw
     RDKit          3D

 46 49  0  0  0  0  0  0  0  0999 V2000
   22.4950   11.8750   22.5810 C   0  0  0  0  0  0  0  0  0  0  0  0
   22.5380    9.4930   22.4640 N   0  0  0  0  0  0  0  0  0  0  0  0
   22.3600   13.0630   22.3480 O   0  0  0  0  0  0  0  0  0  0  0  0
   22.3390   10.6680   21.5610 C   0  0  0  0  0  0  0  0  0  0  0  0
   22.7860   11.3350   23.8120 N   0  0  0  0  0  0  0  0  0  0  0  0
   22.7800    9.9140   23.7010 C   0  0  0  0  0  0  0  0  0  0  0  0
   22.9970    9.1110   24.7490 N   0  0  0  0  0  0  0  0  0  0  0  0
   23.0220   12.1410   25.0180 C   0  0  0  0  0  0  0  0  0  0  0  0
   20.9020   10.6270   21.0050 C   0  0  0  0  0  0  0  0  0  0  0  0
   20.2720    9.4140   20.7470 C   0  0  0  0  0  0  0  0  0  0  0  0
   18.9690    9.3760   20.2600 C   0  0  0  0  0  0  0  0  0  0  0  0
   18.2800   10.5440   20.0210 C   0  0  0  0  0  0  0  0  0  0  0  0
   18.8920   11.7530   20.2590 C   0  0  0  0  0  0  0  0  0  0  0  0
   20.1950   11.7970   20.7440 C   0  0  0  0  0  0  0  0  0  0  0  0
   23.4880   10.6920   20.5300 C   0  0  0  0  0  0  0  0  0  0  0  0
   23.2110   10.7890   19.1730 C   0  0  0  0  0  0  0  0  0  0  0  0
   24.2350   10.8650   18.2430 C   0  0  0  0  0  0  0  0  0  0  0  0
   25.5500   10.8410   18.6560 C   0  0  0  0  0  0  0  0  0  0  0  0
   25.8710   10.7460   20.0070 C   0  0  0  0  0  0  0  0  0  0  0  0
   24.8260   10.6610   20.9430 C   0  0  0  0  0  0  0  0  0  0  0  0
    0.0000    0.0000    0.0000 H   0  0  0  0  0  0  0  0  0  0  0  0
    0.0000    0.0000    0.0000 H   0  0  0  0  0  0  0  0  0  0  0  0
    0.0000    0.0000    0.0000 H   0  0  0  0  0  0  0  0  0  0  0  0
    0.0000    0.0000    0.0000 H   0  0  0  0  0  0  0  0  0  0  0  0
    0.0000    0.0000    0.0000 H   0  0  0  0  0  0  0  0  0  0  0  0
    0.0000    0.0000    0.0000 H   0  0  0  0  0  0  0  0  0  0  0  0
    0.0000    0.0000    0.0000 H   0  0  0  0  0  0  0  0  0  0  0  0
    0.0000    0.0000    0.0000 H   0  0  0  0  0  0  0  0  0  0  0  0
    0.0000    0.0000    0.0000 H   0  0  0  0  0  0  0  0  0  0  0  0
    0.0000    0.0000    0.0000 H   0  0  0  0  0  0  0  0  0  0  0  0
    0.0000    0.0000    0.0000 H   0  0  0  0  0  0  0  0  0  0  0  0
    0.0000    0.0000    0.0000 H   0  0  0  0  0  0  0  0  0  0  0  0
    0.0000    0.0000    0.0000 H   0  0  0  0  0  0  0  0  0  0  0  0
    0.0000    0.0000    0.0000 H   0  0  0  0  0  0  0  0  0  0  0  0
   12.4556    5.2850    9.0948 N   0  0  0  0  0  0  0  0  0  0  0  0
   12.1128    3.9121    9.0562 C   0  0  0  0  0  0  0  0  0  0  0  0
   12.7417    3.0557    9.7092 O   0  0  0  0  0  0  0  0  0  0  0  0
   10.9708    3.4827    8.2127 C   0  0  0  0  0  0  0  0  0  0  0  0
   10.1661    4.2588    7.4323 C   0  0  0  0  0  0  0  0  0  0  0  0
    9.1812    3.6345    6.7487 C   0  0  0  0  0  0  0  0  0  0  0  0
    9.0818    2.2785    6.9028 C   0  0  0  0  0  0  0  0  0  0  0  0
   10.3466    1.9140    7.9819 S   0  0  0  0  0  0  0  0  0  0  0  0
   11.8975    5.9600    8.5298 H   0  0  0  0  0  0  0  0  0  0  0  0
   10.3112    5.3627    7.3584 H   0  0  0  0  0  0  0  0  0  0  0  0
    8.4469    4.1418    6.0712 H   0  0  0  0  0  0  0  0  0  0  0  0
    8.3513    1.5944    6.4339 H   0  0  0  0  0  0  0  0  0  0  0  0
  1  3  2  0
  1  4  1  0
  1  5  1  0
  2  4  1  0
  2  6  1  0
  4  9  1  0
  4 15  1  0
  5  6  1  0
  5  8  1  0
  6  7  2  3
  9 10  2  0
  9 14  1  0
 10 11  1  0
 11 12  2  0
 12 13  1  0
 13 14  2  0
 15 16  2  0
 15 20  1  0
 16 17  1  0
 17 18  2  0
 18 19  1  0
 19 20  2  0
  2 21  1  0
  7 22  1  0
  8 23  1  0
  8 24  1  0
  8 25  1  0
 10 26  1  0
 11 27  1  0
 12 28  1  0
 13 29  1  0
 14 30  1  0
 16 31  1  0
 17 32  1  0
 19 33  1  0
 20 34  1  0
 35 36  1  0
 36 37  2  0
 36 38  1  0
 38 39  2  0
 39 40  1  0
 40 41  2  0
 41 42  1  0
 42 38  1  0
 35 43  1  0
 39 44  1  0
 40 45  1  0
 41 46  1  0
 18 35  1  0
M  END
>  <attachment_point>  (482) 
32

>  <score>  (482) 
<NA>

$$$$
4djw
     RDKit          3D

 49 53  0  0  0  0  0  0  0  0999 V2000
   22.4950   11.8750   22.5810 C   0  0  0  0  0  0  0  0  0  0  0  0
   22.5380    9.4930   22.4640 N   0  0  0  0  0  0  0  0  0  0  0  0
   22.3600   13.0630   22.3480 O   0  0  0  0  0  0  0  0  0  0  0  0
   22.3390   10.6680   21.5610 C   0  0  0  0  0  0  0  0  0  0  0  0
   22.7860   11.3350   23.8120 N   0  0  0  0  0  0  0  0  0  0  0  0
   22.7800    9.9140   23.7010 C   0  0  0  0  0  0  0  0  0  0  0  0
   22.9970    9.1110   24.7490 N   0  0  0  0  0  0  0  0  0  0  0  0
   23.0220   12.1410   25.0180 C   0  0  0  0  0  0  0  0  0  0  0  0
   20.9020   10.6270   21.0050 C   0  0  0  0  0  0  0  0  0  0  0  0
   20.2720    9.4140   20.7470 C   0  0  0  0  0  0  0  0  0  0  0  0
   18.9690    9.3760   20.2600 C   0  0  0  0  0  0  0  0  0  0  0  0
   18.2800   10.5440   20.0210 C   0  0  0  0  0  0  0  0  0  0  0  0
   18.8920   11.7530   20.2590 C   0  0  0  0  0  0  0  0  0  0  0  0
   20.1950   11.7970   20.7440 C   0  0  0  0  0  0  0  0  0  0  0  0
   23.4880   10.6920   20.5300 C   0  0  0  0  0  0  0  0  0  0  0  0
   23.2110   10.7890   19.1730 C   0  0  0  0  0  0  0  0  0  0  0  0
   24.2350   10.8650   18.2430 C   0  0  0  0  0  0  0  0  0  0  0  0
   25.5500   10.8410   18.6560 C   0  0  0  0  0  0  0  0  0  0  0  0
   25.8710   10.7460   20.0070 C   0  0  0  0  0  0  0  0  0  0  0  0
   24.8260   10.6610   20.9430 C   0  0  0  0  0  0  0  0  0  0  0  0
    0.0000    0.0000    0.0000 H   0  0  0  0  0  0  0  0  0  0  0  0
    0.0000    0.0000    0.0000 H   0  0  0  0  0  0  0  0  0  0  0  0
    0.0000    0.0000    0.0000 H   0  0  0  0  0  0  0  0  0  0  0  0
    0.0000    0.0000    0.0000 H   0  0  0  0  0  0  0  0  0  0  0  0
    0.0000    0.0000    0.0000 H   0  0  0  0  0  0  0  0  0  0  0  0
    0.0000    0.0000    0.0000 H   0  0  0  0  0  0  0  0  0  0  0  0
    0.0000    0.0000    0.0000 H   0  0  0  0  0  0  0  0  0  0  0  0
    0.0000    0.0000    0.0000 H   0  0  0  0  0  0  0  0  0  0  0  0
    0.0000    0.0000    0.0000 H   0  0  0  0  0  0  0  0  0  0  0  0
    0.0000    0.0000    0.0000 H   0  0  0  0  0  0  0  0  0  0  0  0
    0.0000    0.0000    0.0000 H   0  0  0  0  0  0  0  0  0  0  0  0
    0.0000    0.0000    0.0000 H   0  0  0  0  0  0  0  0  0  0  0  0
    0.0000    0.0000    0.0000 H   0  0  0  0  0  0  0  0  0  0  0  0
    0.0000    0.0000    0.0000 H   0  0  0  0  0  0  0  0  0  0  0  0
   12.4059    5.2639    9.0585 C   0  0  0  0  0  0  0  0  0  0  0  0
   12.3061    5.8383    7.8251 C   0  0  0  0  0  0  0  0  0  0  0  0
   11.2457    5.4114    7.0075 C   0  0  0  0  0  0  0  0  0  0  0  0
   10.3855    4.4429    7.5151 C   0  0  0  0  0  0  0  0  0  0  0  0
   10.5300    3.8924    8.7720 C   0  0  0  0  0  0  0  0  0  0  0  0
    9.8434    2.9680    9.4620 N   0  0  0  0  0  0  0  0  0  0  0  0
   10.3827    2.7608   10.6765 C   0  0  0  0  0  0  0  0  0  0  0  0
   11.4737    3.6045   10.7562 C   0  0  0  0  0  0  0  0  0  0  0  0
   11.5830    4.3151    9.5861 C   0  0  0  0  0  0  0  0  0  0  0  0
   12.9990    6.5883    7.4727 H   0  0  0  0  0  0  0  0  0  0  0  0
   11.0967    5.8173    6.0160 H   0  0  0  0  0  0  0  0  0  0  0  0
    9.5768    4.1423    6.8448 H   0  0  0  0  0  0  0  0  0  0  0  0
    8.9890    2.4675    9.0978 H   0  0  0  0  0  0  0  0  0  0  0  0
   10.0324    2.0683   11.4440 H   0  0  0  0  0  0  0  0  0  0  0  0
   12.1396    3.6939   11.6058 H   0  0  0  0  0  0  0  0  0  0  0  0
  1  3  2  0
  1  4  1  0
  1  5  1  0
  2  4  1  0
  2  6  1  0
  4  9  1  0
  4 15  1  0
  5  6  1  0
  5  8  1  0
  6  7  2  3
  9 10  2  0
  9 14  1  0
 10 11  1  0
 11 12  2  0
 12 13  1  0
 13 14  2  0
 15 16  2  0
 15 20  1  0
 16 17  1  0
 17 18  2  0
 18 19  1  0
 19 20  2  0
  2 21  1  0
  7 22  1  0
  8 23  1  0
  8 24  1  0
  8 25  1  0
 10 26  1  0
 11 27  1  0
 12 28  1  0
 13 29  1  0
 14 30  1  0
 16 31  1  0
 17 32  1  0
 19 33  1  0
 20 34  1  0
 35 36  2  0
 36 37  1  0
 37 38  2  0
 38 39  1  0
 39 40  1  0
 40 41  1  0
 41 42  2  0
 42 43  1  0
 43 35  1  0
 43 39  2  0
 36 44  1  0
 37 45  1  0
 38 46  1  0
 40 47  1  0
 41 48  1  0
 42 49  1  0
 18 35  1  0
M  END
>  <attachment_point>  (483) 
32

>  <score>  (483) 
<NA>

$$$$
4djw
     RDKit          3D

 49 52  0  0  0  0  0  0  0  0999 V2000
   22.4950   11.8750   22.5810 C   0  0  0  0  0  0  0  0  0  0  0  0
   22.5380    9.4930   22.4640 N   0  0  0  0  0  0  0  0  0  0  0  0
   22.3600   13.0630   22.3480 O   0  0  0  0  0  0  0  0  0  0  0  0
   22.3390   10.6680   21.5610 C   0  0  0  0  0  0  0  0  0  0  0  0
   22.7860   11.3350   23.8120 N   0  0  0  0  0  0  0  0  0  0  0  0
   22.7800    9.9140   23.7010 C   0  0  0  0  0  0  0  0  0  0  0  0
   22.9970    9.1110   24.7490 N   0  0  0  0  0  0  0  0  0  0  0  0
   23.0220   12.1410   25.0180 C   0  0  0  0  0  0  0  0  0  0  0  0
   20.9020   10.6270   21.0050 C   0  0  0  0  0  0  0  0  0  0  0  0
   20.2720    9.4140   20.7470 C   0  0  0  0  0  0  0  0  0  0  0  0
   18.9690    9.3760   20.2600 C   0  0  0  0  0  0  0  0  0  0  0  0
   18.2800   10.5440   20.0210 C   0  0  0  0  0  0  0  0  0  0  0  0
   18.8920   11.7530   20.2590 C   0  0  0  0  0  0  0  0  0  0  0  0
   20.1950   11.7970   20.7440 C   0  0  0  0  0  0  0  0  0  0  0  0
   23.4880   10.6920   20.5300 C   0  0  0  0  0  0  0  0  0  0  0  0
   23.2110   10.7890   19.1730 C   0  0  0  0  0  0  0  0  0  0  0  0
   24.2350   10.8650   18.2430 C   0  0  0  0  0  0  0  0  0  0  0  0
   25.5500   10.8410   18.6560 C   0  0  0  0  0  0  0  0  0  0  0  0
   25.8710   10.7460   20.0070 C   0  0  0  0  0  0  0  0  0  0  0  0
   24.8260   10.6610   20.9430 C   0  0  0  0  0  0  0  0  0  0  0  0
    0.0000    0.0000    0.0000 H   0  0  0  0  0  0  0  0  0  0  0  0
    0.0000    0.0000    0.0000 H   0  0  0  0  0  0  0  0  0  0  0  0
    0.0000    0.0000    0.0000 H   0  0  0  0  0  0  0  0  0  0  0  0
    0.0000    0.0000    0.0000 H   0  0  0  0  0  0  0  0  0  0  0  0
    0.0000    0.0000    0.0000 H   0  0  0  0  0  0  0  0  0  0  0  0
    0.0000    0.0000    0.0000 H   0  0  0  0  0  0  0  0  0  0  0  0
    0.0000    0.0000    0.0000 H   0  0  0  0  0  0  0  0  0  0  0  0
    0.0000    0.0000    0.0000 H   0  0  0  0  0  0  0  0  0  0  0  0
    0.0000    0.0000    0.0000 H   0  0  0  0  0  0  0  0  0  0  0  0
    0.0000    0.0000    0.0000 H   0  0  0  0  0  0  0  0  0  0  0  0
    0.0000    0.0000    0.0000 H   0  0  0  0  0  0  0  0  0  0  0  0
    0.0000    0.0000    0.0000 H   0  0  0  0  0  0  0  0  0  0  0  0
    0.0000    0.0000    0.0000 H   0  0  0  0  0  0  0  0  0  0  0  0
    0.0000    0.0000    0.0000 H   0  0  0  0  0  0  0  0  0  0  0  0
   12.4203    5.2700    9.0690 C   0  0  0  0  0  0  0  0  0  0  0  0
   11.8252    6.1023    8.4270 O   0  0  0  0  0  0  0  0  0  0  0  0
   12.1096    3.9223    9.0746 N   0  0  0  0  0  0  0  0  0  0  0  0
   11.1077    3.1792    8.3914 C   0  0  0  0  0  0  0  0  0  0  0  0
   11.2519    3.2036    6.9339 C   0  0  0  0  0  0  0  0  0  0  0  0
   11.1114    4.5139    6.1978 C   0  0  0  0  0  0  0  0  0  0  0  0
   10.2463    3.2819    5.8960 C   0  0  0  0  0  0  0  0  0  0  0  0
   12.7564    3.3269    9.7233 H   0  0  0  0  0  0  0  0  0  0  0  0
   10.0810    3.5633    8.7105 H   0  0  0  0  0  0  0  0  0  0  0  0
   11.1592    2.1087    8.7616 H   0  0  0  0  0  0  0  0  0  0  0  0
   12.2113    2.6003    6.6298 H   0  0  0  0  0  0  0  0  0  0  0  0
   10.4947    5.3530    6.4865 H   0  0  0  0  0  0  0  0  0  0  0  0
   11.9231    4.7663    5.4831 H   0  0  0  0  0  0  0  0  0  0  0  0
    9.1609    3.3321    6.0791 H   0  0  0  0  0  0  0  0  0  0  0  0
   10.4778    2.8376    4.9066 H   0  0  0  0  0  0  0  0  0  0  0  0
  1  3  2  0
  1  4  1  0
  1  5  1  0
  2  4  1  0
  2  6  1  0
  4  9  1  0
  4 15  1  0
  5  6  1  0
  5  8  1  0
  6  7  2  3
  9 10  2  0
  9 14  1  0
 10 11  1  0
 11 12  2  0
 12 13  1  0
 13 14  2  0
 15 16  2  0
 15 20  1  0
 16 17  1  0
 17 18  2  0
 18 19  1  0
 19 20  2  0
  2 21  1  0
  7 22  1  0
  8 23  1  0
  8 24  1  0
  8 25  1  0
 10 26  1  0
 11 27  1  0
 12 28  1  0
 13 29  1  0
 14 30  1  0
 16 31  1  0
 17 32  1  0
 19 33  1  0
 20 34  1  0
 35 36  2  0
 35 37  1  0
 37 38  1  0
 38 39  1  0
 39 40  1  0
 40 41  1  0
 41 39  1  0
 37 42  1  0
 38 43  1  0
 38 44  1  0
 39 45  1  0
 40 46  1  0
 40 47  1  0
 41 48  1  0
 41 49  1  0
 18 35  1  0
M  END
>  <attachment_point>  (484) 
32

>  <score>  (484) 
<NA>

$$$$
4djw
     RDKit          3D

 48 52  0  0  0  0  0  0  0  0999 V2000
   22.4950   11.8750   22.5810 C   0  0  0  0  0  0  0  0  0  0  0  0
   22.5380    9.4930   22.4640 N   0  0  0  0  0  0  0  0  0  0  0  0
   22.3600   13.0630   22.3480 O   0  0  0  0  0  0  0  0  0  0  0  0
   22.3390   10.6680   21.5610 C   0  0  0  0  0  0  0  0  0  0  0  0
   22.7860   11.3350   23.8120 N   0  0  0  0  0  0  0  0  0  0  0  0
   22.7800    9.9140   23.7010 C   0  0  0  0  0  0  0  0  0  0  0  0
   22.9970    9.1110   24.7490 N   0  0  0  0  0  0  0  0  0  0  0  0
   23.0220   12.1410   25.0180 C   0  0  0  0  0  0  0  0  0  0  0  0
   20.9020   10.6270   21.0050 C   0  0  0  0  0  0  0  0  0  0  0  0
   20.2720    9.4140   20.7470 C   0  0  0  0  0  0  0  0  0  0  0  0
   18.9690    9.3760   20.2600 C   0  0  0  0  0  0  0  0  0  0  0  0
   18.2800   10.5440   20.0210 C   0  0  0  0  0  0  0  0  0  0  0  0
   18.8920   11.7530   20.2590 C   0  0  0  0  0  0  0  0  0  0  0  0
   20.1950   11.7970   20.7440 C   0  0  0  0  0  0  0  0  0  0  0  0
   23.4880   10.6920   20.5300 C   0  0  0  0  0  0  0  0  0  0  0  0
   23.2110   10.7890   19.1730 C   0  0  0  0  0  0  0  0  0  0  0  0
   24.2350   10.8650   18.2430 C   0  0  0  0  0  0  0  0  0  0  0  0
   25.5500   10.8410   18.6560 C   0  0  0  0  0  0  0  0  0  0  0  0
   25.8710   10.7460   20.0070 C   0  0  0  0  0  0  0  0  0  0  0  0
   24.8260   10.6610   20.9430 C   0  0  0  0  0  0  0  0  0  0  0  0
    0.0000    0.0000    0.0000 H   0  0  0  0  0  0  0  0  0  0  0  0
    0.0000    0.0000    0.0000 H   0  0  0  0  0  0  0  0  0  0  0  0
    0.0000    0.0000    0.0000 H   0  0  0  0  0  0  0  0  0  0  0  0
    0.0000    0.0000    0.0000 H   0  0  0  0  0  0  0  0  0  0  0  0
    0.0000    0.0000    0.0000 H   0  0  0  0  0  0  0  0  0  0  0  0
    0.0000    0.0000    0.0000 H   0  0  0  0  0  0  0  0  0  0  0  0
    0.0000    0.0000    0.0000 H   0  0  0  0  0  0  0  0  0  0  0  0
    0.0000    0.0000    0.0000 H   0  0  0  0  0  0  0  0  0  0  0  0
    0.0000    0.0000    0.0000 H   0  0  0  0  0  0  0  0  0  0  0  0
    0.0000    0.0000    0.0000 H   0  0  0  0  0  0  0  0  0  0  0  0
    0.0000    0.0000    0.0000 H   0  0  0  0  0  0  0  0  0  0  0  0
    0.0000    0.0000    0.0000 H   0  0  0  0  0  0  0  0  0  0  0  0
    0.0000    0.0000    0.0000 H   0  0  0  0  0  0  0  0  0  0  0  0
    0.0000    0.0000    0.0000 H   0  0  0  0  0  0  0  0  0  0  0  0
   12.4264    5.2726    9.0734 C   0  0  0  0  0  0  0  0  0  0  0  0
   12.7345    4.4963    7.9984 C   0  0  0  0  0  0  0  0  0  0  0  0
   11.1996    4.1630    7.3332 S   0  0  0  0  0  0  0  0  0  0  0  0
   10.2205    5.0167    8.4370 C   0  0  0  0  0  0  0  0  0  0  0  0
    8.8407    5.2273    8.5704 C   0  0  0  0  0  0  0  0  0  0  0  0
    8.3230    5.9868    9.5956 C   0  0  0  0  0  0  0  0  0  0  0  0
    9.2687    6.5134   10.4658 C   0  0  0  0  0  0  0  0  0  0  0  0
   10.6030    6.3250   10.3590 C   0  0  0  0  0  0  0  0  0  0  0  0
   11.1241    5.5465    9.3069 C   0  0  0  0  0  0  0  0  0  0  0  0
   13.7414    4.1744    7.6600 H   0  0  0  0  0  0  0  0  0  0  0  0
    8.1761    4.7872    7.8583 H   0  0  0  0  0  0  0  0  0  0  0  0
    7.2666    6.1647    9.7215 H   0  0  0  0  0  0  0  0  0  0  0  0
    8.8510    7.1175   11.2808 H   0  0  0  0  0  0  0  0  0  0  0  0
   11.2300    6.7886   11.1000 H   0  0  0  0  0  0  0  0  0  0  0  0
  1  3  2  0
  1  4  1  0
  1  5  1  0
  2  4  1  0
  2  6  1  0
  4  9  1  0
  4 15  1  0
  5  6  1  0
  5  8  1  0
  6  7  2  3
  9 10  2  0
  9 14  1  0
 10 11  1  0
 11 12  2  0
 12 13  1  0
 13 14  2  0
 15 16  2  0
 15 20  1  0
 16 17  1  0
 17 18  2  0
 18 19  1  0
 19 20  2  0
  2 21  1  0
  7 22  1  0
  8 23  1  0
  8 24  1  0
  8 25  1  0
 10 26  1  0
 11 27  1  0
 12 28  1  0
 13 29  1  0
 14 30  1  0
 16 31  1  0
 17 32  1  0
 19 33  1  0
 20 34  1  0
 35 36  2  0
 36 37  1  0
 37 38  1  0
 38 39  2  0
 39 40  1  0
 40 41  2  0
 41 42  1  0
 42 43  2  0
 43 35  1  0
 43 38  1  0
 36 44  1  0
 39 45  1  0
 40 46  1  0
 41 47  1  0
 42 48  1  0
 18 35  1  0
M  END
>  <attachment_point>  (485) 
32

>  <score>  (485) 
<NA>

$$$$
4djw
     RDKit          3D

 56 59  0  0  0  0  0  0  0  0999 V2000
   22.4950   11.8750   22.5810 C   0  0  0  0  0  0  0  0  0  0  0  0
   22.5380    9.4930   22.4640 N   0  0  0  0  0  0  0  0  0  0  0  0
   22.3600   13.0630   22.3480 O   0  0  0  0  0  0  0  0  0  0  0  0
   22.3390   10.6680   21.5610 C   0  0  0  0  0  0  0  0  0  0  0  0
   22.7860   11.3350   23.8120 N   0  0  0  0  0  0  0  0  0  0  0  0
   22.7800    9.9140   23.7010 C   0  0  0  0  0  0  0  0  0  0  0  0
   22.9970    9.1110   24.7490 N   0  0  0  0  0  0  0  0  0  0  0  0
   23.0220   12.1410   25.0180 C   0  0  0  0  0  0  0  0  0  0  0  0
   20.9020   10.6270   21.0050 C   0  0  0  0  0  0  0  0  0  0  0  0
   20.2720    9.4140   20.7470 C   0  0  0  0  0  0  0  0  0  0  0  0
   18.9690    9.3760   20.2600 C   0  0  0  0  0  0  0  0  0  0  0  0
   18.2800   10.5440   20.0210 C   0  0  0  0  0  0  0  0  0  0  0  0
   18.8920   11.7530   20.2590 C   0  0  0  0  0  0  0  0  0  0  0  0
   20.1950   11.7970   20.7440 C   0  0  0  0  0  0  0  0  0  0  0  0
   23.4880   10.6920   20.5300 C   0  0  0  0  0  0  0  0  0  0  0  0
   23.2110   10.7890   19.1730 C   0  0  0  0  0  0  0  0  0  0  0  0
   24.2350   10.8650   18.2430 C   0  0  0  0  0  0  0  0  0  0  0  0
   25.5500   10.8410   18.6560 C   0  0  0  0  0  0  0  0  0  0  0  0
   25.8710   10.7460   20.0070 C   0  0  0  0  0  0  0  0  0  0  0  0
   24.8260   10.6610   20.9430 C   0  0  0  0  0  0  0  0  0  0  0  0
    0.0000    0.0000    0.0000 H   0  0  0  0  0  0  0  0  0  0  0  0
    0.0000    0.0000    0.0000 H   0  0  0  0  0  0  0  0  0  0  0  0
    0.0000    0.0000    0.0000 H   0  0  0  0  0  0  0  0  0  0  0  0
    0.0000    0.0000    0.0000 H   0  0  0  0  0  0  0  0  0  0  0  0
    0.0000    0.0000    0.0000 H   0  0  0  0  0  0  0  0  0  0  0  0
    0.0000    0.0000    0.0000 H   0  0  0  0  0  0  0  0  0  0  0  0
    0.0000    0.0000    0.0000 H   0  0  0  0  0  0  0  0  0  0  0  0
    0.0000    0.0000    0.0000 H   0  0  0  0  0  0  0  0  0  0  0  0
    0.0000    0.0000    0.0000 H   0  0  0  0  0  0  0  0  0  0  0  0
    0.0000    0.0000    0.0000 H   0  0  0  0  0  0  0  0  0  0  0  0
    0.0000    0.0000    0.0000 H   0  0  0  0  0  0  0  0  0  0  0  0
    0.0000    0.0000    0.0000 H   0  0  0  0  0  0  0  0  0  0  0  0
    0.0000    0.0000    0.0000 H   0  0  0  0  0  0  0  0  0  0  0  0
    0.0000    0.0000    0.0000 H   0  0  0  0  0  0  0  0  0  0  0  0
   12.4384    5.2777    9.0822 C   0  0  0  0  0  0  0  0  0  0  0  0
   12.3325    3.7969    9.1508 C   0  0  0  0  0  0  0  0  0  0  0  0
   11.2341    3.3247    8.3171 N   0  0  0  0  0  0  0  0  0  0  0  0
   10.9493    1.9141    8.6944 C   0  0  0  0  0  0  0  0  0  0  0  0
   10.0527    1.5252    7.5477 C   0  0  0  0  0  0  0  0  0  0  0  0
   10.5370    2.3167    6.3511 C   0  0  0  0  0  0  0  0  0  0  0  0
   11.6684    3.1753    6.9335 C   0  0  1  0  0  0  0  0  0  0  0  0
   11.7715    4.3939    6.1218 C   0  0  0  0  0  0  0  0  0  0  0  0
   12.4427    5.6978    8.0951 H   0  0  0  0  0  0  0  0  0  0  0  0
   11.5552    5.7200    9.6381 H   0  0  0  0  0  0  0  0  0  0  0  0
   12.0665    3.5016   10.2056 H   0  0  0  0  0  0  0  0  0  0  0  0
   13.2800    3.2720    8.8862 H   0  0  0  0  0  0  0  0  0  0  0  0
   10.4420    1.9068    9.6721 H   0  0  0  0  0  0  0  0  0  0  0  0
   11.8539    1.3169    8.7498 H   0  0  0  0  0  0  0  0  0  0  0  0
   10.1068    0.4666    7.2836 H   0  0  0  0  0  0  0  0  0  0  0  0
    9.0299    1.8470    7.8269 H   0  0  0  0  0  0  0  0  0  0  0  0
    9.7421    2.9826    5.9715 H   0  0  0  0  0  0  0  0  0  0  0  0
   10.9196    1.6408    5.5530 H   0  0  0  0  0  0  0  0  0  0  0  0
   12.5822    2.5621    6.8605 H   0  0  0  0  0  0  0  0  0  0  0  0
   11.0207    5.1674    6.2993 H   0  0  0  0  0  0  0  0  0  0  0  0
   11.5536    4.0719    5.0457 H   0  0  0  0  0  0  0  0  0  0  0  0
   12.8208    4.8041    6.0085 H   0  0  0  0  0  0  0  0  0  0  0  0
  1  3  2  0
  1  4  1  0
  1  5  1  0
  2  4  1  0
  2  6  1  0
  4  9  1  0
  4 15  1  0
  5  6  1  0
  5  8  1  0
  6  7  2  3
  9 10  2  0
  9 14  1  0
 10 11  1  0
 11 12  2  0
 12 13  1  0
 13 14  2  0
 15 16  2  0
 15 20  1  0
 16 17  1  0
 17 18  2  0
 18 19  1  0
 19 20  2  0
  2 21  1  0
  7 22  1  0
  8 23  1  0
  8 24  1  0
  8 25  1  0
 10 26  1  0
 11 27  1  0
 12 28  1  0
 13 29  1  0
 14 30  1  0
 16 31  1  0
 17 32  1  0
 19 33  1  0
 20 34  1  0
 35 36  1  0
 36 37  1  0
 37 38  1  0
 38 39  1  0
 39 40  1  0
 40 41  1  0
 41 42  1  0
 41 37  1  0
 35 43  1  0
 35 44  1  0
 36 45  1  0
 36 46  1  0
 38 47  1  0
 38 48  1  0
 39 49  1  0
 39 50  1  0
 40 51  1  0
 40 52  1  0
 41 53  1  1
 42 54  1  0
 42 55  1  0
 42 56  1  0
 18 35  1  0
M  END
>  <attachment_point>  (486) 
32

>  <score>  (486) 
<NA>

$$$$
4djw
     RDKit          3D

 53 56  0  0  0  0  0  0  0  0999 V2000
   22.4950   11.8750   22.5810 C   0  0  0  0  0  0  0  0  0  0  0  0
   22.5380    9.4930   22.4640 N   0  0  0  0  0  0  0  0  0  0  0  0
   22.3600   13.0630   22.3480 O   0  0  0  0  0  0  0  0  0  0  0  0
   22.3390   10.6680   21.5610 C   0  0  0  0  0  0  0  0  0  0  0  0
   22.7860   11.3350   23.8120 N   0  0  0  0  0  0  0  0  0  0  0  0
   22.7800    9.9140   23.7010 C   0  0  0  0  0  0  0  0  0  0  0  0
   22.9970    9.1110   24.7490 N   0  0  0  0  0  0  0  0  0  0  0  0
   23.0220   12.1410   25.0180 C   0  0  0  0  0  0  0  0  0  0  0  0
   20.9020   10.6270   21.0050 C   0  0  0  0  0  0  0  0  0  0  0  0
   20.2720    9.4140   20.7470 C   0  0  0  0  0  0  0  0  0  0  0  0
   18.9690    9.3760   20.2600 C   0  0  0  0  0  0  0  0  0  0  0  0
   18.2800   10.5440   20.0210 C   0  0  0  0  0  0  0  0  0  0  0  0
   18.8920   11.7530   20.2590 C   0  0  0  0  0  0  0  0  0  0  0  0
   20.1950   11.7970   20.7440 C   0  0  0  0  0  0  0  0  0  0  0  0
   23.4880   10.6920   20.5300 C   0  0  0  0  0  0  0  0  0  0  0  0
   23.2110   10.7890   19.1730 C   0  0  0  0  0  0  0  0  0  0  0  0
   24.2350   10.8650   18.2430 C   0  0  0  0  0  0  0  0  0  0  0  0
   25.5500   10.8410   18.6560 C   0  0  0  0  0  0  0  0  0  0  0  0
   25.8710   10.7460   20.0070 C   0  0  0  0  0  0  0  0  0  0  0  0
   24.8260   10.6610   20.9430 C   0  0  0  0  0  0  0  0  0  0  0  0
    0.0000    0.0000    0.0000 H   0  0  0  0  0  0  0  0  0  0  0  0
    0.0000    0.0000    0.0000 H   0  0  0  0  0  0  0  0  0  0  0  0
    0.0000    0.0000    0.0000 H   0  0  0  0  0  0  0  0  0  0  0  0
    0.0000    0.0000    0.0000 H   0  0  0  0  0  0  0  0  0  0  0  0
    0.0000    0.0000    0.0000 H   0  0  0  0  0  0  0  0  0  0  0  0
    0.0000    0.0000    0.0000 H   0  0  0  0  0  0  0  0  0  0  0  0
    0.0000    0.0000    0.0000 H   0  0  0  0  0  0  0  0  0  0  0  0
    0.0000    0.0000    0.0000 H   0  0  0  0  0  0  0  0  0  0  0  0
    0.0000    0.0000    0.0000 H   0  0  0  0  0  0  0  0  0  0  0  0
    0.0000    0.0000    0.0000 H   0  0  0  0  0  0  0  0  0  0  0  0
    0.0000    0.0000    0.0000 H   0  0  0  0  0  0  0  0  0  0  0  0
    0.0000    0.0000    0.0000 H   0  0  0  0  0  0  0  0  0  0  0  0
    0.0000    0.0000    0.0000 H   0  0  0  0  0  0  0  0  0  0  0  0
    0.0000    0.0000    0.0000 H   0  0  0  0  0  0  0  0  0  0  0  0
   12.4399    5.2783    9.0833 C   0  0  0  0  0  0  0  0  0  0  0  0
   12.9060    5.5057    7.7092 N   0  0  0  0  0  0  0  0  0  0  0  0
   14.1176    4.7212    7.5530 C   0  0  0  0  0  0  0  0  0  0  0  0
   14.6904    4.8680    6.1959 C   0  0  0  0  0  0  0  0  0  0  0  0
   14.3585    4.0484    5.1375 C   0  0  0  0  0  0  0  0  0  0  0  0
   14.9128    4.2129    3.8810 C   0  0  0  0  0  0  0  0  0  0  0  0
   15.8247    5.2308    3.6899 C   0  0  0  0  0  0  0  0  0  0  0  0
   16.1789    6.0695    4.7290 C   0  0  0  0  0  0  0  0  0  0  0  0
   15.6046    5.8737    5.9670 C   0  0  0  0  0  0  0  0  0  0  0  0
   11.5582    5.9370    9.2136 H   0  0  0  0  0  0  0  0  0  0  0  0
   12.2084    4.2303    9.2642 H   0  0  0  0  0  0  0  0  0  0  0  0
   13.0846    6.5059    7.5346 H   0  0  0  0  0  0  0  0  0  0  0  0
   13.9303    3.6545    7.7568 H   0  0  0  0  0  0  0  0  0  0  0  0
   14.8605    5.1170    8.2862 H   0  0  0  0  0  0  0  0  0  0  0  0
   13.6449    3.2533    5.2908 H   0  0  0  0  0  0  0  0  0  0  0  0
   14.6787    3.5923    3.0277 H   0  0  0  0  0  0  0  0  0  0  0  0
   16.2736    5.3814    2.7162 H   0  0  0  0  0  0  0  0  0  0  0  0
   16.9089    6.8769    4.5573 H   0  0  0  0  0  0  0  0  0  0  0  0
   15.9092    6.5564    6.7639 H   0  0  0  0  0  0  0  0  0  0  0  0
  1  3  2  0
  1  4  1  0
  1  5  1  0
  2  4  1  0
  2  6  1  0
  4  9  1  0
  4 15  1  0
  5  6  1  0
  5  8  1  0
  6  7  2  3
  9 10  2  0
  9 14  1  0
 10 11  1  0
 11 12  2  0
 12 13  1  0
 13 14  2  0
 15 16  2  0
 15 20  1  0
 16 17  1  0
 17 18  2  0
 18 19  1  0
 19 20  2  0
  2 21  1  0
  7 22  1  0
  8 23  1  0
  8 24  1  0
  8 25  1  0
 10 26  1  0
 11 27  1  0
 12 28  1  0
 13 29  1  0
 14 30  1  0
 16 31  1  0
 17 32  1  0
 19 33  1  0
 20 34  1  0
 35 36  1  0
 36 37  1  0
 37 38  1  0
 38 39  2  0
 39 40  1  0
 40 41  2  0
 41 42  1  0
 42 43  2  0
 43 38  1  0
 35 44  1  0
 35 45  1  0
 36 46  1  0
 37 47  1  0
 37 48  1  0
 39 49  1  0
 40 50  1  0
 41 51  1  0
 42 52  1  0
 43 53  1  0
 18 35  1  0
M  END
>  <attachment_point>  (487) 
32

>  <score>  (487) 
<NA>

$$$$
4djw
     RDKit          3D

 48 51  0  0  0  0  0  0  0  0999 V2000
   22.4950   11.8750   22.5810 C   0  0  0  0  0  0  0  0  0  0  0  0
   22.5380    9.4930   22.4640 N   0  0  0  0  0  0  0  0  0  0  0  0
   22.3600   13.0630   22.3480 O   0  0  0  0  0  0  0  0  0  0  0  0
   22.3390   10.6680   21.5610 C   0  0  0  0  0  0  0  0  0  0  0  0
   22.7860   11.3350   23.8120 N   0  0  0  0  0  0  0  0  0  0  0  0
   22.7800    9.9140   23.7010 C   0  0  0  0  0  0  0  0  0  0  0  0
   22.9970    9.1110   24.7490 N   0  0  0  0  0  0  0  0  0  0  0  0
   23.0220   12.1410   25.0180 C   0  0  0  0  0  0  0  0  0  0  0  0
   20.9020   10.6270   21.0050 C   0  0  0  0  0  0  0  0  0  0  0  0
   20.2720    9.4140   20.7470 C   0  0  0  0  0  0  0  0  0  0  0  0
   18.9690    9.3760   20.2600 C   0  0  0  0  0  0  0  0  0  0  0  0
   18.2800   10.5440   20.0210 C   0  0  0  0  0  0  0  0  0  0  0  0
   18.8920   11.7530   20.2590 C   0  0  0  0  0  0  0  0  0  0  0  0
   20.1950   11.7970   20.7440 C   0  0  0  0  0  0  0  0  0  0  0  0
   23.4880   10.6920   20.5300 C   0  0  0  0  0  0  0  0  0  0  0  0
   23.2110   10.7890   19.1730 C   0  0  0  0  0  0  0  0  0  0  0  0
   24.2350   10.8650   18.2430 C   0  0  0  0  0  0  0  0  0  0  0  0
   25.5500   10.8410   18.6560 C   0  0  0  0  0  0  0  0  0  0  0  0
   25.8710   10.7460   20.0070 C   0  0  0  0  0  0  0  0  0  0  0  0
   24.8260   10.6610   20.9430 C   0  0  0  0  0  0  0  0  0  0  0  0
    0.0000    0.0000    0.0000 H   0  0  0  0  0  0  0  0  0  0  0  0
    0.0000    0.0000    0.0000 H   0  0  0  0  0  0  0  0  0  0  0  0
    0.0000    0.0000    0.0000 H   0  0  0  0  0  0  0  0  0  0  0  0
    0.0000    0.0000    0.0000 H   0  0  0  0  0  0  0  0  0  0  0  0
    0.0000    0.0000    0.0000 H   0  0  0  0  0  0  0  0  0  0  0  0
    0.0000    0.0000    0.0000 H   0  0  0  0  0  0  0  0  0  0  0  0
    0.0000    0.0000    0.0000 H   0  0  0  0  0  0  0  0  0  0  0  0
    0.0000    0.0000    0.0000 H   0  0  0  0  0  0  0  0  0  0  0  0
    0.0000    0.0000    0.0000 H   0  0  0  0  0  0  0  0  0  0  0  0
    0.0000    0.0000    0.0000 H   0  0  0  0  0  0  0  0  0  0  0  0
    0.0000    0.0000    0.0000 H   0  0  0  0  0  0  0  0  0  0  0  0
    0.0000    0.0000    0.0000 H   0  0  0  0  0  0  0  0  0  0  0  0
    0.0000    0.0000    0.0000 H   0  0  0  0  0  0  0  0  0  0  0  0
    0.0000    0.0000    0.0000 H   0  0  0  0  0  0  0  0  0  0  0  0
   12.4647    5.2889    9.1015 O   0  0  0  0  0  0  0  0  0  0  0  0
   13.0909    4.6777    8.0014 C   0  0  0  0  0  0  0  0  0  0  0  0
   13.9674    3.5487    8.4611 C   0  0  0  0  0  0  0  0  0  0  0  0
   13.4726    2.2807    8.5738 C   0  0  0  0  0  0  0  0  0  0  0  0
   14.2732    1.2491    8.9939 C   0  0  0  0  0  0  0  0  0  0  0  0
   15.5568    1.5013    9.2949 N   0  0  0  0  0  0  0  0  0  0  0  0
   16.0656    2.7382    9.1922 C   0  0  0  0  0  0  0  0  0  0  0  0
   15.2823    3.7949    8.7720 C   0  0  0  0  0  0  0  0  0  0  0  0
   13.7663    5.4069    7.5030 H   0  0  0  0  0  0  0  0  0  0  0  0
   12.3269    4.2959    7.2975 H   0  0  0  0  0  0  0  0  0  0  0  0
   12.4285    2.0502    8.3338 H   0  0  0  0  0  0  0  0  0  0  0  0
   13.8723    0.2181    9.0858 H   0  0  0  0  0  0  0  0  0  0  0  0
   17.0843    2.9201    9.4347 H   0  0  0  0  0  0  0  0  0  0  0  0
   15.6766    4.8015    8.6830 H   0  0  0  0  0  0  0  0  0  0  0  0
  1  3  2  0
  1  4  1  0
  1  5  1  0
  2  4  1  0
  2  6  1  0
  4  9  1  0
  4 15  1  0
  5  6  1  0
  5  8  1  0
  6  7  2  3
  9 10  2  0
  9 14  1  0
 10 11  1  0
 11 12  2  0
 12 13  1  0
 13 14  2  0
 15 16  2  0
 15 20  1  0
 16 17  1  0
 17 18  2  0
 18 19  1  0
 19 20  2  0
  2 21  1  0
  7 22  1  0
  8 23  1  0
  8 24  1  0
  8 25  1  0
 10 26  1  0
 11 27  1  0
 12 28  1  0
 13 29  1  0
 14 30  1  0
 16 31  1  0
 17 32  1  0
 19 33  1  0
 20 34  1  0
 35 36  1  0
 36 37  1  0
 37 38  2  0
 38 39  1  0
 39 40  2  0
 40 41  1  0
 41 42  2  0
 42 37  1  0
 36 43  1  0
 36 44  1  0
 38 45  1  0
 39 46  1  0
 41 47  1  0
 42 48  1  0
 18 35  1  0
M  END
>  <attachment_point>  (488) 
32

>  <score>  (488) 
<NA>

$$$$
4djw
     RDKit          3D

 45 48  0  0  0  0  0  0  0  0999 V2000
   22.4950   11.8750   22.5810 C   0  0  0  0  0  0  0  0  0  0  0  0
   22.5380    9.4930   22.4640 N   0  0  0  0  0  0  0  0  0  0  0  0
   22.3600   13.0630   22.3480 O   0  0  0  0  0  0  0  0  0  0  0  0
   22.3390   10.6680   21.5610 C   0  0  0  0  0  0  0  0  0  0  0  0
   22.7860   11.3350   23.8120 N   0  0  0  0  0  0  0  0  0  0  0  0
   22.7800    9.9140   23.7010 C   0  0  0  0  0  0  0  0  0  0  0  0
   22.9970    9.1110   24.7490 N   0  0  0  0  0  0  0  0  0  0  0  0
   23.0220   12.1410   25.0180 C   0  0  0  0  0  0  0  0  0  0  0  0
   20.9020   10.6270   21.0050 C   0  0  0  0  0  0  0  0  0  0  0  0
   20.2720    9.4140   20.7470 C   0  0  0  0  0  0  0  0  0  0  0  0
   18.9690    9.3760   20.2600 C   0  0  0  0  0  0  0  0  0  0  0  0
   18.2800   10.5440   20.0210 C   0  0  0  0  0  0  0  0  0  0  0  0
   18.8920   11.7530   20.2590 C   0  0  0  0  0  0  0  0  0  0  0  0
   20.1950   11.7970   20.7440 C   0  0  0  0  0  0  0  0  0  0  0  0
   23.4880   10.6920   20.5300 C   0  0  0  0  0  0  0  0  0  0  0  0
   23.2110   10.7890   19.1730 C   0  0  0  0  0  0  0  0  0  0  0  0
   24.2350   10.8650   18.2430 C   0  0  0  0  0  0  0  0  0  0  0  0
   25.5500   10.8410   18.6560 C   0  0  0  0  0  0  0  0  0  0  0  0
   25.8710   10.7460   20.0070 C   0  0  0  0  0  0  0  0  0  0  0  0
   24.8260   10.6610   20.9430 C   0  0  0  0  0  0  0  0  0  0  0  0
    0.0000    0.0000    0.0000 H   0  0  0  0  0  0  0  0  0  0  0  0
    0.0000    0.0000    0.0000 H   0  0  0  0  0  0  0  0  0  0  0  0
    0.0000    0.0000    0.0000 H   0  0  0  0  0  0  0  0  0  0  0  0
    0.0000    0.0000    0.0000 H   0  0  0  0  0  0  0  0  0  0  0  0
    0.0000    0.0000    0.0000 H   0  0  0  0  0  0  0  0  0  0  0  0
    0.0000    0.0000    0.0000 H   0  0  0  0  0  0  0  0  0  0  0  0
    0.0000    0.0000    0.0000 H   0  0  0  0  0  0  0  0  0  0  0  0
    0.0000    0.0000    0.0000 H   0  0  0  0  0  0  0  0  0  0  0  0
    0.0000    0.0000    0.0000 H   0  0  0  0  0  0  0  0  0  0  0  0
    0.0000    0.0000    0.0000 H   0  0  0  0  0  0  0  0  0  0  0  0
    0.0000    0.0000    0.0000 H   0  0  0  0  0  0  0  0  0  0  0  0
    0.0000    0.0000    0.0000 H   0  0  0  0  0  0  0  0  0  0  0  0
    0.0000    0.0000    0.0000 H   0  0  0  0  0  0  0  0  0  0  0  0
    0.0000    0.0000    0.0000 H   0  0  0  0  0  0  0  0  0  0  0  0
   12.4406    5.2786    9.0838 C   0  0  0  0  0  0  0  0  0  0  0  0
   11.2733    6.0024    8.9498 C   0  0  0  0  0  0  0  0  0  0  0  0
   10.2636    5.4961    8.1667 C   0  0  0  0  0  0  0  0  0  0  0  0
   10.3572    4.2907    7.5015 C   0  0  0  0  0  0  0  0  0  0  0  0
   11.5351    3.5753    7.6456 C   0  0  0  0  0  0  0  0  0  0  0  0
   11.7870    2.0284    6.8551 Cl  0  0  0  0  0  0  0  0  0  0  0  0
   12.5638    4.0693    8.4305 C   0  0  0  0  0  0  0  0  0  0  0  0
   14.0591    3.1424    8.6024 Cl  0  0  0  0  0  0  0  0  0  0  0  0
   11.1645    6.9588    9.4610 H   0  0  0  0  0  0  0  0  0  0  0  0
    9.3398    6.0575    8.0538 H   0  0  0  0  0  0  0  0  0  0  0  0
    9.5753    3.8836    6.8862 H   0  0  0  0  0  0  0  0  0  0  0  0
  1  3  2  0
  1  4  1  0
  1  5  1  0
  2  4  1  0
  2  6  1  0
  4  9  1  0
  4 15  1  0
  5  6  1  0
  5  8  1  0
  6  7  2  3
  9 10  2  0
  9 14  1  0
 10 11  1  0
 11 12  2  0
 12 13  1  0
 13 14  2  0
 15 16  2  0
 15 20  1  0
 16 17  1  0
 17 18  2  0
 18 19  1  0
 19 20  2  0
  2 21  1  0
  7 22  1  0
  8 23  1  0
  8 24  1  0
  8 25  1  0
 10 26  1  0
 11 27  1  0
 12 28  1  0
 13 29  1  0
 14 30  1  0
 16 31  1  0
 17 32  1  0
 19 33  1  0
 20 34  1  0
 35 36  2  0
 36 37  1  0
 37 38  2  0
 38 39  1  0
 39 40  1  0
 39 41  2  0
 41 42  1  0
 41 35  1  0
 36 43  1  0
 37 44  1  0
 38 45  1  0
 18 35  1  0
M  END
>  <attachment_point>  (489) 
32

>  <score>  (489) 
<NA>

$$$$
4djw
     RDKit          3D

 55 57  0  0  0  0  0  0  0  0999 V2000
   22.4950   11.8750   22.5810 C   0  0  0  0  0  0  0  0  0  0  0  0
   22.5380    9.4930   22.4640 N   0  0  0  0  0  0  0  0  0  0  0  0
   22.3600   13.0630   22.3480 O   0  0  0  0  0  0  0  0  0  0  0  0
   22.3390   10.6680   21.5610 C   0  0  0  0  0  0  0  0  0  0  0  0
   22.7860   11.3350   23.8120 N   0  0  0  0  0  0  0  0  0  0  0  0
   22.7800    9.9140   23.7010 C   0  0  0  0  0  0  0  0  0  0  0  0
   22.9970    9.1110   24.7490 N   0  0  0  0  0  0  0  0  0  0  0  0
   23.0220   12.1410   25.0180 C   0  0  0  0  0  0  0  0  0  0  0  0
   20.9020   10.6270   21.0050 C   0  0  0  0  0  0  0  0  0  0  0  0
   20.2720    9.4140   20.7470 C   0  0  0  0  0  0  0  0  0  0  0  0
   18.9690    9.3760   20.2600 C   0  0  0  0  0  0  0  0  0  0  0  0
   18.2800   10.5440   20.0210 C   0  0  0  0  0  0  0  0  0  0  0  0
   18.8920   11.7530   20.2590 C   0  0  0  0  0  0  0  0  0  0  0  0
   20.1950   11.7970   20.7440 C   0  0  0  0  0  0  0  0  0  0  0  0
   23.4880   10.6920   20.5300 C   0  0  0  0  0  0  0  0  0  0  0  0
   23.2110   10.7890   19.1730 C   0  0  0  0  0  0  0  0  0  0  0  0
   24.2350   10.8650   18.2430 C   0  0  0  0  0  0  0  0  0  0  0  0
   25.5500   10.8410   18.6560 C   0  0  0  0  0  0  0  0  0  0  0  0
   25.8710   10.7460   20.0070 C   0  0  0  0  0  0  0  0  0  0  0  0
   24.8260   10.6610   20.9430 C   0  0  0  0  0  0  0  0  0  0  0  0
    0.0000    0.0000    0.0000 H   0  0  0  0  0  0  0  0  0  0  0  0
    0.0000    0.0000    0.0000 H   0  0  0  0  0  0  0  0  0  0  0  0
    0.0000    0.0000    0.0000 H   0  0  0  0  0  0  0  0  0  0  0  0
    0.0000    0.0000    0.0000 H   0  0  0  0  0  0  0  0  0  0  0  0
    0.0000    0.0000    0.0000 H   0  0  0  0  0  0  0  0  0  0  0  0
    0.0000    0.0000    0.0000 H   0  0  0  0  0  0  0  0  0  0  0  0
    0.0000    0.0000    0.0000 H   0  0  0  0  0  0  0  0  0  0  0  0
    0.0000    0.0000    0.0000 H   0  0  0  0  0  0  0  0  0  0  0  0
    0.0000    0.0000    0.0000 H   0  0  0  0  0  0  0  0  0  0  0  0
    0.0000    0.0000    0.0000 H   0  0  0  0  0  0  0  0  0  0  0  0
    0.0000    0.0000    0.0000 H   0  0  0  0  0  0  0  0  0  0  0  0
    0.0000    0.0000    0.0000 H   0  0  0  0  0  0  0  0  0  0  0  0
    0.0000    0.0000    0.0000 H   0  0  0  0  0  0  0  0  0  0  0  0
    0.0000    0.0000    0.0000 H   0  0  0  0  0  0  0  0  0  0  0  0
   12.4232    5.2712    9.0711 C   0  0  0  0  0  0  0  0  0  0  0  0
   11.5395    4.4190    9.9375 C   0  0  0  0  0  0  0  0  0  0  0  0
   10.3898    3.8871    9.2795 N   0  0  0  0  0  0  0  0  0  0  0  0
   10.6963    2.9151    8.2718 C   0  0  0  0  0  0  0  0  0  0  0  0
    9.4847    2.2937    7.6625 C   0  0  0  0  0  0  0  0  0  0  0  0
    9.2894    3.5635   10.1177 C   0  0  0  0  0  0  0  0  0  0  0  0
    8.6059    4.7051   10.7794 C   0  0  0  0  0  0  0  0  0  0  0  0
   11.9833    6.1948    8.6999 H   0  0  0  0  0  0  0  0  0  0  0  0
   12.9050    4.6692    8.2442 H   0  0  0  0  0  0  0  0  0  0  0  0
   11.3057    4.9197   10.8726 H   0  0  0  0  0  0  0  0  0  0  0  0
   12.1733    3.5297   10.2249 H   0  0  0  0  0  0  0  0  0  0  0  0
   11.2488    3.4490    7.4276 H   0  0  0  0  0  0  0  0  0  0  0  0
   11.3294    2.1312    8.7402 H   0  0  0  0  0  0  0  0  0  0  0  0
    9.8133    1.7696    6.7103 H   0  0  0  0  0  0  0  0  0  0  0  0
    8.7432    3.0618    7.3183 H   0  0  0  0  0  0  0  0  0  0  0  0
    9.0058    1.5033    8.2895 H   0  0  0  0  0  0  0  0  0  0  0  0
    9.6494    2.8636   10.9114 H   0  0  0  0  0  0  0  0  0  0  0  0
    8.5237    2.9775    9.5462 H   0  0  0  0  0  0  0  0  0  0  0  0
    8.8849    4.7679   11.8708 H   0  0  0  0  0  0  0  0  0  0  0  0
    7.4973    4.4834   10.7797 H   0  0  0  0  0  0  0  0  0  0  0  0
    8.6963    5.6685   10.2715 H   0  0  0  0  0  0  0  0  0  0  0  0
  1  3  2  0
  1  4  1  0
  1  5  1  0
  2  4  1  0
  2  6  1  0
  4  9  1  0
  4 15  1  0
  5  6  1  0
  5  8  1  0
  6  7  2  3
  9 10  2  0
  9 14  1  0
 10 11  1  0
 11 12  2  0
 12 13  1  0
 13 14  2  0
 15 16  2  0
 15 20  1  0
 16 17  1  0
 17 18  2  0
 18 19  1  0
 19 20  2  0
  2 21  1  0
  7 22  1  0
  8 23  1  0
  8 24  1  0
  8 25  1  0
 10 26  1  0
 11 27  1  0
 12 28  1  0
 13 29  1  0
 14 30  1  0
 16 31  1  0
 17 32  1  0
 19 33  1  0
 20 34  1  0
 35 36  1  0
 36 37  1  0
 37 38  1  0
 38 39  1  0
 37 40  1  0
 40 41  1  0
 35 42  1  0
 35 43  1  0
 36 44  1  0
 36 45  1  0
 38 46  1  0
 38 47  1  0
 39 48  1  0
 39 49  1  0
 39 50  1  0
 40 51  1  0
 40 52  1  0
 41 53  1  0
 41 54  1  0
 41 55  1  0
 18 35  1  0
M  END
>  <attachment_point>  (490) 
32

>  <score>  (490) 
<NA>

$$$$
4djw
     RDKit          3D

 45 47  0  0  0  0  0  0  0  0999 V2000
   22.4950   11.8750   22.5810 C   0  0  0  0  0  0  0  0  0  0  0  0
   22.5380    9.4930   22.4640 N   0  0  0  0  0  0  0  0  0  0  0  0
   22.3600   13.0630   22.3480 O   0  0  0  0  0  0  0  0  0  0  0  0
   22.3390   10.6680   21.5610 C   0  0  0  0  0  0  0  0  0  0  0  0
   22.7860   11.3350   23.8120 N   0  0  0  0  0  0  0  0  0  0  0  0
   22.7800    9.9140   23.7010 C   0  0  0  0  0  0  0  0  0  0  0  0
   22.9970    9.1110   24.7490 N   0  0  0  0  0  0  0  0  0  0  0  0
   23.0220   12.1410   25.0180 C   0  0  0  0  0  0  0  0  0  0  0  0
   20.9020   10.6270   21.0050 C   0  0  0  0  0  0  0  0  0  0  0  0
   20.2720    9.4140   20.7470 C   0  0  0  0  0  0  0  0  0  0  0  0
   18.9690    9.3760   20.2600 C   0  0  0  0  0  0  0  0  0  0  0  0
   18.2800   10.5440   20.0210 C   0  0  0  0  0  0  0  0  0  0  0  0
   18.8920   11.7530   20.2590 C   0  0  0  0  0  0  0  0  0  0  0  0
   20.1950   11.7970   20.7440 C   0  0  0  0  0  0  0  0  0  0  0  0
   23.4880   10.6920   20.5300 C   0  0  0  0  0  0  0  0  0  0  0  0
   23.2110   10.7890   19.1730 C   0  0  0  0  0  0  0  0  0  0  0  0
   24.2350   10.8650   18.2430 C   0  0  0  0  0  0  0  0  0  0  0  0
   25.5500   10.8410   18.6560 C   0  0  0  0  0  0  0  0  0  0  0  0
   25.8710   10.7460   20.0070 C   0  0  0  0  0  0  0  0  0  0  0  0
   24.8260   10.6610   20.9430 C   0  0  0  0  0  0  0  0  0  0  0  0
    0.0000    0.0000    0.0000 H   0  0  0  0  0  0  0  0  0  0  0  0
    0.0000    0.0000    0.0000 H   0  0  0  0  0  0  0  0  0  0  0  0
    0.0000    0.0000    0.0000 H   0  0  0  0  0  0  0  0  0  0  0  0
    0.0000    0.0000    0.0000 H   0  0  0  0  0  0  0  0  0  0  0  0
    0.0000    0.0000    0.0000 H   0  0  0  0  0  0  0  0  0  0  0  0
    0.0000    0.0000    0.0000 H   0  0  0  0  0  0  0  0  0  0  0  0
    0.0000    0.0000    0.0000 H   0  0  0  0  0  0  0  0  0  0  0  0
    0.0000    0.0000    0.0000 H   0  0  0  0  0  0  0  0  0  0  0  0
    0.0000    0.0000    0.0000 H   0  0  0  0  0  0  0  0  0  0  0  0
    0.0000    0.0000    0.0000 H   0  0  0  0  0  0  0  0  0  0  0  0
    0.0000    0.0000    0.0000 H   0  0  0  0  0  0  0  0  0  0  0  0
    0.0000    0.0000    0.0000 H   0  0  0  0  0  0  0  0  0  0  0  0
    0.0000    0.0000    0.0000 H   0  0  0  0  0  0  0  0  0  0  0  0
    0.0000    0.0000    0.0000 H   0  0  0  0  0  0  0  0  0  0  0  0
   12.4059    5.2639    9.0585 C   0  0  0  0  0  0  0  0  0  0  0  0
   12.7822    4.2396    8.2480 O   0  0  0  0  0  0  0  0  0  0  0  0
   11.2544    5.8385    9.1923 C   0  0  0  0  0  0  0  0  0  0  0  0
   11.0489    6.9419   10.1335 C   0  0  0  0  0  0  0  0  0  0  0  0
    9.9601    7.5097   10.2825 O   0  0  0  0  0  0  0  0  0  0  0  0
   12.1710    7.4124   10.9477 C   0  0  0  0  0  0  0  0  0  0  0  0
   13.3234    6.8790   10.8520 O   0  0  0  0  0  0  0  0  0  0  0  0
   12.0509    8.4473   11.8551 O   0  0  0  0  0  0  0  0  0  0  0  0
   12.2302    3.3879    8.2263 H   0  0  0  0  0  0  0  0  0  0  0  0
   10.4413    5.4951    8.5999 H   0  0  0  0  0  0  0  0  0  0  0  0
   12.6551    8.5413   12.6622 H   0  0  0  0  0  0  0  0  0  0  0  0
  1  3  2  0
  1  4  1  0
  1  5  1  0
  2  4  1  0
  2  6  1  0
  4  9  1  0
  4 15  1  0
  5  6  1  0
  5  8  1  0
  6  7  2  3
  9 10  2  0
  9 14  1  0
 10 11  1  0
 11 12  2  0
 12 13  1  0
 13 14  2  0
 15 16  2  0
 15 20  1  0
 16 17  1  0
 17 18  2  0
 18 19  1  0
 19 20  2  0
  2 21  1  0
  7 22  1  0
  8 23  1  0
  8 24  1  0
  8 25  1  0
 10 26  1  0
 11 27  1  0
 12 28  1  0
 13 29  1  0
 14 30  1  0
 16 31  1  0
 17 32  1  0
 19 33  1  0
 20 34  1  0
 35 36  1  0
 35 37  2  3
 37 38  1  0
 38 39  2  0
 38 40  1  0
 40 41  2  0
 40 42  1  0
 36 43  1  0
 37 44  1  0
 42 45  1  0
 18 35  1  0
M  END
>  <attachment_point>  (491) 
32

>  <score>  (491) 
<NA>

$$$$
4djw
     RDKit          3D

 41 43  0  0  0  0  0  0  0  0999 V2000
   22.4950   11.8750   22.5810 C   0  0  0  0  0  0  0  0  0  0  0  0
   22.5380    9.4930   22.4640 N   0  0  0  0  0  0  0  0  0  0  0  0
   22.3600   13.0630   22.3480 O   0  0  0  0  0  0  0  0  0  0  0  0
   22.3390   10.6680   21.5610 C   0  0  0  0  0  0  0  0  0  0  0  0
   22.7860   11.3350   23.8120 N   0  0  0  0  0  0  0  0  0  0  0  0
   22.7800    9.9140   23.7010 C   0  0  0  0  0  0  0  0  0  0  0  0
   22.9970    9.1110   24.7490 N   0  0  0  0  0  0  0  0  0  0  0  0
   23.0220   12.1410   25.0180 C   0  0  0  0  0  0  0  0  0  0  0  0
   20.9020   10.6270   21.0050 C   0  0  0  0  0  0  0  0  0  0  0  0
   20.2720    9.4140   20.7470 C   0  0  0  0  0  0  0  0  0  0  0  0
   18.9690    9.3760   20.2600 C   0  0  0  0  0  0  0  0  0  0  0  0
   18.2800   10.5440   20.0210 C   0  0  0  0  0  0  0  0  0  0  0  0
   18.8920   11.7530   20.2590 C   0  0  0  0  0  0  0  0  0  0  0  0
   20.1950   11.7970   20.7440 C   0  0  0  0  0  0  0  0  0  0  0  0
   23.4880   10.6920   20.5300 C   0  0  0  0  0  0  0  0  0  0  0  0
   23.2110   10.7890   19.1730 C   0  0  0  0  0  0  0  0  0  0  0  0
   24.2350   10.8650   18.2430 C   0  0  0  0  0  0  0  0  0  0  0  0
   25.5500   10.8410   18.6560 C   0  0  0  0  0  0  0  0  0  0  0  0
   25.8710   10.7460   20.0070 C   0  0  0  0  0  0  0  0  0  0  0  0
   24.8260   10.6610   20.9430 C   0  0  0  0  0  0  0  0  0  0  0  0
    0.0000    0.0000    0.0000 H   0  0  0  0  0  0  0  0  0  0  0  0
    0.0000    0.0000    0.0000 H   0  0  0  0  0  0  0  0  0  0  0  0
    0.0000    0.0000    0.0000 H   0  0  0  0  0  0  0  0  0  0  0  0
    0.0000    0.0000    0.0000 H   0  0  0  0  0  0  0  0  0  0  0  0
    0.0000    0.0000    0.0000 H   0  0  0  0  0  0  0  0  0  0  0  0
    0.0000    0.0000    0.0000 H   0  0  0  0  0  0  0  0  0  0  0  0
    0.0000    0.0000    0.0000 H   0  0  0  0  0  0  0  0  0  0  0  0
    0.0000    0.0000    0.0000 H   0  0  0  0  0  0  0  0  0  0  0  0
    0.0000    0.0000    0.0000 H   0  0  0  0  0  0  0  0  0  0  0  0
    0.0000    0.0000    0.0000 H   0  0  0  0  0  0  0  0  0  0  0  0
    0.0000    0.0000    0.0000 H   0  0  0  0  0  0  0  0  0  0  0  0
    0.0000    0.0000    0.0000 H   0  0  0  0  0  0  0  0  0  0  0  0
    0.0000    0.0000    0.0000 H   0  0  0  0  0  0  0  0  0  0  0  0
    0.0000    0.0000    0.0000 H   0  0  0  0  0  0  0  0  0  0  0  0
   12.4459    5.2809    9.0877 C   0  0  0  0  0  0  0  0  0  0  0  0
   12.5163    3.7866    8.8667 C   0  0  0  0  0  0  0  0  0  0  0  0
   12.4692    3.1987   10.1270 F   0  0  0  0  0  0  0  0  0  0  0  0
   13.6424    3.3774    8.2271 F   0  0  0  0  0  0  0  0  0  0  0  0
   11.4158    3.3201    8.1812 F   0  0  0  0  0  0  0  0  0  0  0  0
   12.3551    5.8476    8.1428 H   0  0  0  0  0  0  0  0  0  0  0  0
   11.5158    5.4786    9.6594 H   0  0  0  0  0  0  0  0  0  0  0  0
  1  3  2  0
  1  4  1  0
  1  5  1  0
  2  4  1  0
  2  6  1  0
  4  9  1  0
  4 15  1  0
  5  6  1  0
  5  8  1  0
  6  7  2  3
  9 10  2  0
  9 14  1  0
 10 11  1  0
 11 12  2  0
 12 13  1  0
 13 14  2  0
 15 16  2  0
 15 20  1  0
 16 17  1  0
 17 18  2  0
 18 19  1  0
 19 20  2  0
  2 21  1  0
  7 22  1  0
  8 23  1  0
  8 24  1  0
  8 25  1  0
 10 26  1  0
 11 27  1  0
 12 28  1  0
 13 29  1  0
 14 30  1  0
 16 31  1  0
 17 32  1  0
 19 33  1  0
 20 34  1  0
 35 36  1  0
 36 37  1  0
 36 38  1  0
 36 39  1  0
 35 40  1  0
 35 41  1  0
 18 35  1  0
M  END
>  <attachment_point>  (492) 
32

>  <score>  (492) 
<NA>

$$$$
4djw
     RDKit          3D

 46 49  0  0  0  0  0  0  0  0999 V2000
   22.4950   11.8750   22.5810 C   0  0  0  0  0  0  0  0  0  0  0  0
   22.5380    9.4930   22.4640 N   0  0  0  0  0  0  0  0  0  0  0  0
   22.3600   13.0630   22.3480 O   0  0  0  0  0  0  0  0  0  0  0  0
   22.3390   10.6680   21.5610 C   0  0  0  0  0  0  0  0  0  0  0  0
   22.7860   11.3350   23.8120 N   0  0  0  0  0  0  0  0  0  0  0  0
   22.7800    9.9140   23.7010 C   0  0  0  0  0  0  0  0  0  0  0  0
   22.9970    9.1110   24.7490 N   0  0  0  0  0  0  0  0  0  0  0  0
   23.0220   12.1410   25.0180 C   0  0  0  0  0  0  0  0  0  0  0  0
   20.9020   10.6270   21.0050 C   0  0  0  0  0  0  0  0  0  0  0  0
   20.2720    9.4140   20.7470 C   0  0  0  0  0  0  0  0  0  0  0  0
   18.9690    9.3760   20.2600 C   0  0  0  0  0  0  0  0  0  0  0  0
   18.2800   10.5440   20.0210 C   0  0  0  0  0  0  0  0  0  0  0  0
   18.8920   11.7530   20.2590 C   0  0  0  0  0  0  0  0  0  0  0  0
   20.1950   11.7970   20.7440 C   0  0  0  0  0  0  0  0  0  0  0  0
   23.4880   10.6920   20.5300 C   0  0  0  0  0  0  0  0  0  0  0  0
   23.2110   10.7890   19.1730 C   0  0  0  0  0  0  0  0  0  0  0  0
   24.2350   10.8650   18.2430 C   0  0  0  0  0  0  0  0  0  0  0  0
   25.5500   10.8410   18.6560 C   0  0  0  0  0  0  0  0  0  0  0  0
   25.8710   10.7460   20.0070 C   0  0  0  0  0  0  0  0  0  0  0  0
   24.8260   10.6610   20.9430 C   0  0  0  0  0  0  0  0  0  0  0  0
    0.0000    0.0000    0.0000 H   0  0  0  0  0  0  0  0  0  0  0  0
    0.0000    0.0000    0.0000 H   0  0  0  0  0  0  0  0  0  0  0  0
    0.0000    0.0000    0.0000 H   0  0  0  0  0  0  0  0  0  0  0  0
    0.0000    0.0000    0.0000 H   0  0  0  0  0  0  0  0  0  0  0  0
    0.0000    0.0000    0.0000 H   0  0  0  0  0  0  0  0  0  0  0  0
    0.0000    0.0000    0.0000 H   0  0  0  0  0  0  0  0  0  0  0  0
    0.0000    0.0000    0.0000 H   0  0  0  0  0  0  0  0  0  0  0  0
    0.0000    0.0000    0.0000 H   0  0  0  0  0  0  0  0  0  0  0  0
    0.0000    0.0000    0.0000 H   0  0  0  0  0  0  0  0  0  0  0  0
    0.0000    0.0000    0.0000 H   0  0  0  0  0  0  0  0  0  0  0  0
    0.0000    0.0000    0.0000 H   0  0  0  0  0  0  0  0  0  0  0  0
    0.0000    0.0000    0.0000 H   0  0  0  0  0  0  0  0  0  0  0  0
    0.0000    0.0000    0.0000 H   0  0  0  0  0  0  0  0  0  0  0  0
    0.0000    0.0000    0.0000 H   0  0  0  0  0  0  0  0  0  0  0  0
   12.4139    5.2673    9.0644 C   0  0  0  0  0  0  0  0  0  0  0  0
   12.6218    4.6702    8.0069 O   0  0  0  0  0  0  0  0  0  0  0  0
   11.1061    5.5482    9.5841 C   0  0  0  0  0  0  0  0  0  0  0  0
   10.0031    5.1287    8.8646 C   0  0  0  0  0  0  0  0  0  0  0  0
    8.7474    5.3993    9.3652 C   0  0  0  0  0  0  0  0  0  0  0  0
    8.5953    6.0527   10.5210 N   0  0  0  0  0  0  0  0  0  0  0  0
    9.6379    6.4783   11.2525 C   0  0  0  0  0  0  0  0  0  0  0  0
   10.9079    6.2209   10.7749 C   0  0  0  0  0  0  0  0  0  0  0  0
   10.1020    4.5993    7.9287 H   0  0  0  0  0  0  0  0  0  0  0  0
    7.9031    5.0570    8.7769 H   0  0  0  0  0  0  0  0  0  0  0  0
    9.5182    7.0112   12.1950 H   0  0  0  0  0  0  0  0  0  0  0  0
   11.7633    6.5645   11.3653 H   0  0  0  0  0  0  0  0  0  0  0  0
  1  3  2  0
  1  4  1  0
  1  5  1  0
  2  4  1  0
  2  6  1  0
  4  9  1  0
  4 15  1  0
  5  6  1  0
  5  8  1  0
  6  7  2  3
  9 10  2  0
  9 14  1  0
 10 11  1  0
 11 12  2  0
 12 13  1  0
 13 14  2  0
 15 16  2  0
 15 20  1  0
 16 17  1  0
 17 18  2  0
 18 19  1  0
 19 20  2  0
  2 21  1  0
  7 22  1  0
  8 23  1  0
  8 24  1  0
  8 25  1  0
 10 26  1  0
 11 27  1  0
 12 28  1  0
 13 29  1  0
 14 30  1  0
 16 31  1  0
 17 32  1  0
 19 33  1  0
 20 34  1  0
 35 36  2  0
 35 37  1  0
 37 38  2  0
 38 39  1  0
 39 40  2  0
 40 41  1  0
 41 42  2  0
 42 37  1  0
 38 43  1  0
 39 44  1  0
 41 45  1  0
 42 46  1  0
 18 35  1  0
M  END
>  <attachment_point>  (493) 
32

>  <score>  (493) 
<NA>

$$$$
4djw
     RDKit          3D

 37 39  0  0  0  0  0  0  0  0999 V2000
   22.4950   11.8750   22.5810 C   0  0  0  0  0  0  0  0  0  0  0  0
   22.5380    9.4930   22.4640 N   0  0  0  0  0  0  0  0  0  0  0  0
   22.3600   13.0630   22.3480 O   0  0  0  0  0  0  0  0  0  0  0  0
   22.3390   10.6680   21.5610 C   0  0  0  0  0  0  0  0  0  0  0  0
   22.7860   11.3350   23.8120 N   0  0  0  0  0  0  0  0  0  0  0  0
   22.7800    9.9140   23.7010 C   0  0  0  0  0  0  0  0  0  0  0  0
   22.9970    9.1110   24.7490 N   0  0  0  0  0  0  0  0  0  0  0  0
   23.0220   12.1410   25.0180 C   0  0  0  0  0  0  0  0  0  0  0  0
   20.9020   10.6270   21.0050 C   0  0  0  0  0  0  0  0  0  0  0  0
   20.2720    9.4140   20.7470 C   0  0  0  0  0  0  0  0  0  0  0  0
   18.9690    9.3760   20.2600 C   0  0  0  0  0  0  0  0  0  0  0  0
   18.2800   10.5440   20.0210 C   0  0  0  0  0  0  0  0  0  0  0  0
   18.8920   11.7530   20.2590 C   0  0  0  0  0  0  0  0  0  0  0  0
   20.1950   11.7970   20.7440 C   0  0  0  0  0  0  0  0  0  0  0  0
   23.4880   10.6920   20.5300 C   0  0  0  0  0  0  0  0  0  0  0  0
   23.2110   10.7890   19.1730 C   0  0  0  0  0  0  0  0  0  0  0  0
   24.2350   10.8650   18.2430 C   0  0  0  0  0  0  0  0  0  0  0  0
   25.5500   10.8410   18.6560 C   0  0  0  0  0  0  0  0  0  0  0  0
   25.8710   10.7460   20.0070 C   0  0  0  0  0  0  0  0  0  0  0  0
   24.8260   10.6610   20.9430 C   0  0  0  0  0  0  0  0  0  0  0  0
    0.0000    0.0000    0.0000 H   0  0  0  0  0  0  0  0  0  0  0  0
    0.0000    0.0000    0.0000 H   0  0  0  0  0  0  0  0  0  0  0  0
    0.0000    0.0000    0.0000 H   0  0  0  0  0  0  0  0  0  0  0  0
    0.0000    0.0000    0.0000 H   0  0  0  0  0  0  0  0  0  0  0  0
    0.0000    0.0000    0.0000 H   0  0  0  0  0  0  0  0  0  0  0  0
    0.0000    0.0000    0.0000 H   0  0  0  0  0  0  0  0  0  0  0  0
    0.0000    0.0000    0.0000 H   0  0  0  0  0  0  0  0  0  0  0  0
    0.0000    0.0000    0.0000 H   0  0  0  0  0  0  0  0  0  0  0  0
    0.0000    0.0000    0.0000 H   0  0  0  0  0  0  0  0  0  0  0  0
    0.0000    0.0000    0.0000 H   0  0  0  0  0  0  0  0  0  0  0  0
    0.0000    0.0000    0.0000 H   0  0  0  0  0  0  0  0  0  0  0  0
    0.0000    0.0000    0.0000 H   0  0  0  0  0  0  0  0  0  0  0  0
    0.0000    0.0000    0.0000 H   0  0  0  0  0  0  0  0  0  0  0  0
    0.0000    0.0000    0.0000 H   0  0  0  0  0  0  0  0  0  0  0  0
   12.3989    5.2609    9.0534 N   0  0  0  0  0  0  0  0  0  0  0  0
   11.8031    6.2310    8.5294 C   0  0  0  0  0  0  0  0  0  0  0  0
   11.2938    7.5412    7.7166 S   0  0  0  0  0  0  0  0  0  0  0  0
  1  3  2  0
  1  4  1  0
  1  5  1  0
  2  4  1  0
  2  6  1  0
  4  9  1  0
  4 15  1  0
  5  6  1  0
  5  8  1  0
  6  7  2  3
  9 10  2  0
  9 14  1  0
 10 11  1  0
 11 12  2  0
 12 13  1  0
 13 14  2  0
 15 16  2  0
 15 20  1  0
 16 17  1  0
 17 18  2  0
 18 19  1  0
 19 20  2  0
  2 21  1  0
  7 22  1  0
  8 23  1  0
  8 24  1  0
  8 25  1  0
 10 26  1  0
 11 27  1  0
 12 28  1  0
 13 29  1  0
 14 30  1  0
 16 31  1  0
 17 32  1  0
 19 33  1  0
 20 34  1  0
 35 36  2  0
 36 37  2  0
 18 35  1  0
M  END
>  <attachment_point>  (494) 
32

>  <score>  (494) 
<NA>

$$$$
4djw
     RDKit          3D

 40 42  0  0  0  0  0  0  0  0999 V2000
   22.4950   11.8750   22.5810 C   0  0  0  0  0  0  0  0  0  0  0  0
   22.5380    9.4930   22.4640 N   0  0  0  0  0  0  0  0  0  0  0  0
   22.3600   13.0630   22.3480 O   0  0  0  0  0  0  0  0  0  0  0  0
   22.3390   10.6680   21.5610 C   0  0  0  0  0  0  0  0  0  0  0  0
   22.7860   11.3350   23.8120 N   0  0  0  0  0  0  0  0  0  0  0  0
   22.7800    9.9140   23.7010 C   0  0  0  0  0  0  0  0  0  0  0  0
   22.9970    9.1110   24.7490 N   0  0  0  0  0  0  0  0  0  0  0  0
   23.0220   12.1410   25.0180 C   0  0  0  0  0  0  0  0  0  0  0  0
   20.9020   10.6270   21.0050 C   0  0  0  0  0  0  0  0  0  0  0  0
   20.2720    9.4140   20.7470 C   0  0  0  0  0  0  0  0  0  0  0  0
   18.9690    9.3760   20.2600 C   0  0  0  0  0  0  0  0  0  0  0  0
   18.2800   10.5440   20.0210 C   0  0  0  0  0  0  0  0  0  0  0  0
   18.8920   11.7530   20.2590 C   0  0  0  0  0  0  0  0  0  0  0  0
   20.1950   11.7970   20.7440 C   0  0  0  0  0  0  0  0  0  0  0  0
   23.4880   10.6920   20.5300 C   0  0  0  0  0  0  0  0  0  0  0  0
   23.2110   10.7890   19.1730 C   0  0  0  0  0  0  0  0  0  0  0  0
   24.2350   10.8650   18.2430 C   0  0  0  0  0  0  0  0  0  0  0  0
   25.5500   10.8410   18.6560 C   0  0  0  0  0  0  0  0  0  0  0  0
   25.8710   10.7460   20.0070 C   0  0  0  0  0  0  0  0  0  0  0  0
   24.8260   10.6610   20.9430 C   0  0  0  0  0  0  0  0  0  0  0  0
    0.0000    0.0000    0.0000 H   0  0  0  0  0  0  0  0  0  0  0  0
    0.0000    0.0000    0.0000 H   0  0  0  0  0  0  0  0  0  0  0  0
    0.0000    0.0000    0.0000 H   0  0  0  0  0  0  0  0  0  0  0  0
    0.0000    0.0000    0.0000 H   0  0  0  0  0  0  0  0  0  0  0  0
    0.0000    0.0000    0.0000 H   0  0  0  0  0  0  0  0  0  0  0  0
    0.0000    0.0000    0.0000 H   0  0  0  0  0  0  0  0  0  0  0  0
    0.0000    0.0000    0.0000 H   0  0  0  0  0  0  0  0  0  0  0  0
    0.0000    0.0000    0.0000 H   0  0  0  0  0  0  0  0  0  0  0  0
    0.0000    0.0000    0.0000 H   0  0  0  0  0  0  0  0  0  0  0  0
    0.0000    0.0000    0.0000 H   0  0  0  0  0  0  0  0  0  0  0  0
    0.0000    0.0000    0.0000 H   0  0  0  0  0  0  0  0  0  0  0  0
    0.0000    0.0000    0.0000 H   0  0  0  0  0  0  0  0  0  0  0  0
    0.0000    0.0000    0.0000 H   0  0  0  0  0  0  0  0  0  0  0  0
    0.0000    0.0000    0.0000 H   0  0  0  0  0  0  0  0  0  0  0  0
   12.3763    5.2513    9.0369 P   0  0  0  0  0  5  0  0  0  0  0  0
   12.3288    3.7691    9.2022 O   0  0  0  0  0  0  0  0  0  0  0  0
   12.7006    5.6603    7.4579 O   0  0  0  0  0  0  0  0  0  0  0  0
   10.9453    5.9030    9.6280 O   0  0  0  0  0  0  0  0  0  0  0  0
   12.5457    6.6031    7.2369 H   0  0  0  0  0  0  0  0  0  0  0  0
   10.8665    6.8756    9.4761 H   0  0  0  0  0  0  0  0  0  0  0  0
  1  3  2  0
  1  4  1  0
  1  5  1  0
  2  4  1  0
  2  6  1  0
  4  9  1  0
  4 15  1  0
  5  6  1  0
  5  8  1  0
  6  7  2  3
  9 10  2  0
  9 14  1  0
 10 11  1  0
 11 12  2  0
 12 13  1  0
 13 14  2  0
 15 16  2  0
 15 20  1  0
 16 17  1  0
 17 18  2  0
 18 19  1  0
 19 20  2  0
  2 21  1  0
  7 22  1  0
  8 23  1  0
  8 24  1  0
  8 25  1  0
 10 26  1  0
 11 27  1  0
 12 28  1  0
 13 29  1  0
 14 30  1  0
 16 31  1  0
 17 32  1  0
 19 33  1  0
 20 34  1  0
 35 36  2  0
 35 37  1  0
 35 38  1  0
 37 39  1  0
 38 40  1  0
 18 35  1  0
M  END
>  <attachment_point>  (495) 
32

>  <score>  (495) 
<NA>

$$$$
4djw
     RDKit          3D

 47 50  0  0  0  0  0  0  0  0999 V2000
   22.4950   11.8750   22.5810 C   0  0  0  0  0  0  0  0  0  0  0  0
   22.5380    9.4930   22.4640 N   0  0  0  0  0  0  0  0  0  0  0  0
   22.3600   13.0630   22.3480 O   0  0  0  0  0  0  0  0  0  0  0  0
   22.3390   10.6680   21.5610 C   0  0  0  0  0  0  0  0  0  0  0  0
   22.7860   11.3350   23.8120 N   0  0  0  0  0  0  0  0  0  0  0  0
   22.7800    9.9140   23.7010 C   0  0  0  0  0  0  0  0  0  0  0  0
   22.9970    9.1110   24.7490 N   0  0  0  0  0  0  0  0  0  0  0  0
   23.0220   12.1410   25.0180 C   0  0  0  0  0  0  0  0  0  0  0  0
   20.9020   10.6270   21.0050 C   0  0  0  0  0  0  0  0  0  0  0  0
   20.2720    9.4140   20.7470 C   0  0  0  0  0  0  0  0  0  0  0  0
   18.9690    9.3760   20.2600 C   0  0  0  0  0  0  0  0  0  0  0  0
   18.2800   10.5440   20.0210 C   0  0  0  0  0  0  0  0  0  0  0  0
   18.8920   11.7530   20.2590 C   0  0  0  0  0  0  0  0  0  0  0  0
   20.1950   11.7970   20.7440 C   0  0  0  0  0  0  0  0  0  0  0  0
   23.4880   10.6920   20.5300 C   0  0  0  0  0  0  0  0  0  0  0  0
   23.2110   10.7890   19.1730 C   0  0  0  0  0  0  0  0  0  0  0  0
   24.2350   10.8650   18.2430 C   0  0  0  0  0  0  0  0  0  0  0  0
   25.5500   10.8410   18.6560 C   0  0  0  0  0  0  0  0  0  0  0  0
   25.8710   10.7460   20.0070 C   0  0  0  0  0  0  0  0  0  0  0  0
   24.8260   10.6610   20.9430 C   0  0  0  0  0  0  0  0  0  0  0  0
    0.0000    0.0000    0.0000 H   0  0  0  0  0  0  0  0  0  0  0  0
    0.0000    0.0000    0.0000 H   0  0  0  0  0  0  0  0  0  0  0  0
    0.0000    0.0000    0.0000 H   0  0  0  0  0  0  0  0  0  0  0  0
    0.0000    0.0000    0.0000 H   0  0  0  0  0  0  0  0  0  0  0  0
    0.0000    0.0000    0.0000 H   0  0  0  0  0  0  0  0  0  0  0  0
    0.0000    0.0000    0.0000 H   0  0  0  0  0  0  0  0  0  0  0  0
    0.0000    0.0000    0.0000 H   0  0  0  0  0  0  0  0  0  0  0  0
    0.0000    0.0000    0.0000 H   0  0  0  0  0  0  0  0  0  0  0  0
    0.0000    0.0000    0.0000 H   0  0  0  0  0  0  0  0  0  0  0  0
    0.0000    0.0000    0.0000 H   0  0  0  0  0  0  0  0  0  0  0  0
    0.0000    0.0000    0.0000 H   0  0  0  0  0  0  0  0  0  0  0  0
    0.0000    0.0000    0.0000 H   0  0  0  0  0  0  0  0  0  0  0  0
    0.0000    0.0000    0.0000 H   0  0  0  0  0  0  0  0  0  0  0  0
    0.0000    0.0000    0.0000 H   0  0  0  0  0  0  0  0  0  0  0  0
   12.4425    5.2794    9.0852 C   0  0  0  0  0  0  0  0  0  0  0  0
   11.9859    6.0641    8.0473 C   0  0  0  0  0  0  0  0  0  0  0  0
   10.9292    5.5739    7.3057 C   0  0  0  0  0  0  0  0  0  0  0  0
   10.3938    4.3429    7.6375 C   0  0  0  0  0  0  0  0  0  0  0  0
   10.8600    3.5778    8.6711 C   0  0  0  0  0  0  0  0  0  0  0  0
   10.2617    2.2496    9.0075 C   0  0  0  0  0  0  0  0  0  0  0  0
   10.9219    1.7480   10.1221 F   0  0  0  0  0  0  0  0  0  0  0  0
   10.3278    1.3618    7.9808 F   0  0  0  0  0  0  0  0  0  0  0  0
    8.9295    2.3976    9.4006 F   0  0  0  0  0  0  0  0  0  0  0  0
   11.8922    4.0732    9.3835 N   0  0  0  0  0  0  0  0  0  0  0  0
   12.4530    7.0245    7.8397 H   0  0  0  0  0  0  0  0  0  0  0  0
   10.5562    6.1750    6.4867 H   0  0  0  0  0  0  0  0  0  0  0  0
    9.5551    3.9462    7.0544 H   0  0  0  0  0  0  0  0  0  0  0  0
  1  3  2  0
  1  4  1  0
  1  5  1  0
  2  4  1  0
  2  6  1  0
  4  9  1  0
  4 15  1  0
  5  6  1  0
  5  8  1  0
  6  7  2  3
  9 10  2  0
  9 14  1  0
 10 11  1  0
 11 12  2  0
 12 13  1  0
 13 14  2  0
 15 16  2  0
 15 20  1  0
 16 17  1  0
 17 18  2  0
 18 19  1  0
 19 20  2  0
  2 21  1  0
  7 22  1  0
  8 23  1  0
  8 24  1  0
  8 25  1  0
 10 26  1  0
 11 27  1  0
 12 28  1  0
 13 29  1  0
 14 30  1  0
 16 31  1  0
 17 32  1  0
 19 33  1  0
 20 34  1  0
 35 36  2  0
 36 37  1  0
 37 38  2  0
 38 39  1  0
 39 40  1  0
 40 41  1  0
 40 42  1  0
 40 43  1  0
 39 44  2  0
 44 35  1  0
 36 45  1  0
 37 46  1  0
 38 47  1  0
 18 35  1  0
M  END
>  <attachment_point>  (496) 
32

>  <score>  (496) 
<NA>

$$$$
4djw
     RDKit          3D

 58 62  0  0  0  0  0  0  0  0999 V2000
   22.4950   11.8750   22.5810 C   0  0  0  0  0  0  0  0  0  0  0  0
   22.5380    9.4930   22.4640 N   0  0  0  0  0  0  0  0  0  0  0  0
   22.3600   13.0630   22.3480 O   0  0  0  0  0  0  0  0  0  0  0  0
   22.3390   10.6680   21.5610 C   0  0  0  0  0  0  0  0  0  0  0  0
   22.7860   11.3350   23.8120 N   0  0  0  0  0  0  0  0  0  0  0  0
   22.7800    9.9140   23.7010 C   0  0  0  0  0  0  0  0  0  0  0  0
   22.9970    9.1110   24.7490 N   0  0  0  0  0  0  0  0  0  0  0  0
   23.0220   12.1410   25.0180 C   0  0  0  0  0  0  0  0  0  0  0  0
   20.9020   10.6270   21.0050 C   0  0  0  0  0  0  0  0  0  0  0  0
   20.2720    9.4140   20.7470 C   0  0  0  0  0  0  0  0  0  0  0  0
   18.9690    9.3760   20.2600 C   0  0  0  0  0  0  0  0  0  0  0  0
   18.2800   10.5440   20.0210 C   0  0  0  0  0  0  0  0  0  0  0  0
   18.8920   11.7530   20.2590 C   0  0  0  0  0  0  0  0  0  0  0  0
   20.1950   11.7970   20.7440 C   0  0  0  0  0  0  0  0  0  0  0  0
   23.4880   10.6920   20.5300 C   0  0  0  0  0  0  0  0  0  0  0  0
   23.2110   10.7890   19.1730 C   0  0  0  0  0  0  0  0  0  0  0  0
   24.2350   10.8650   18.2430 C   0  0  0  0  0  0  0  0  0  0  0  0
   25.5500   10.8410   18.6560 C   0  0  0  0  0  0  0  0  0  0  0  0
   25.8710   10.7460   20.0070 C   0  0  0  0  0  0  0  0  0  0  0  0
   24.8260   10.6610   20.9430 C   0  0  0  0  0  0  0  0  0  0  0  0
    0.0000    0.0000    0.0000 H   0  0  0  0  0  0  0  0  0  0  0  0
    0.0000    0.0000    0.0000 H   0  0  0  0  0  0  0  0  0  0  0  0
    0.0000    0.0000    0.0000 H   0  0  0  0  0  0  0  0  0  0  0  0
    0.0000    0.0000    0.0000 H   0  0  0  0  0  0  0  0  0  0  0  0
    0.0000    0.0000    0.0000 H   0  0  0  0  0  0  0  0  0  0  0  0
    0.0000    0.0000    0.0000 H   0  0  0  0  0  0  0  0  0  0  0  0
    0.0000    0.0000    0.0000 H   0  0  0  0  0  0  0  0  0  0  0  0
    0.0000    0.0000    0.0000 H   0  0  0  0  0  0  0  0  0  0  0  0
    0.0000    0.0000    0.0000 H   0  0  0  0  0  0  0  0  0  0  0  0
    0.0000    0.0000    0.0000 H   0  0  0  0  0  0  0  0  0  0  0  0
    0.0000    0.0000    0.0000 H   0  0  0  0  0  0  0  0  0  0  0  0
    0.0000    0.0000    0.0000 H   0  0  0  0  0  0  0  0  0  0  0  0
    0.0000    0.0000    0.0000 H   0  0  0  0  0  0  0  0  0  0  0  0
    0.0000    0.0000    0.0000 H   0  0  0  0  0  0  0  0  0  0  0  0
   12.4397    5.2782    9.0832 N   0  0  0  0  0  0  0  0  0  0  0  0
   11.4141    5.0293   10.0715 C   0  0  0  0  0  0  0  0  0  0  0  0
   11.7217    3.8389   10.9479 C   0  0  0  0  0  0  0  0  0  0  0  0
   11.7837    2.6704   10.0965 N   0  0  0  0  0  0  0  0  0  0  0  0
   11.5718    1.3667   10.6360 C   0  0  0  0  0  0  0  0  0  0  0  0
   11.3123    1.1773   11.9680 C   0  0  0  0  0  0  0  0  0  0  0  0
   11.1012   -0.0717   12.5275 C   0  0  0  0  0  0  0  0  0  0  0  0
   11.1597   -1.1592   11.6862 C   0  0  0  0  0  0  0  0  0  0  0  0
   11.4217   -0.9588   10.3458 C   0  0  0  0  0  0  0  0  0  0  0  0
   11.6175    0.2678    9.8599 N   0  0  0  0  0  0  0  0  0  0  0  0
   12.0677    2.8844    8.6927 C   0  0  0  0  0  0  0  0  0  0  0  0
   12.9477    4.0920    8.4746 C   0  0  0  0  0  0  0  0  0  0  0  0
   11.2107    5.9217   10.6974 H   0  0  0  0  0  0  0  0  0  0  0  0
   10.4702    4.8028    9.5326 H   0  0  0  0  0  0  0  0  0  0  0  0
   12.7162    3.9659   11.4063 H   0  0  0  0  0  0  0  0  0  0  0  0
   10.9034    3.7845   11.6976 H   0  0  0  0  0  0  0  0  0  0  0  0
   11.2640    2.0121   12.6339 H   0  0  0  0  0  0  0  0  0  0  0  0
   10.8973   -0.2059   13.5815 H   0  0  0  0  0  0  0  0  0  0  0  0
   10.9978   -2.1639   12.0930 H   0  0  0  0  0  0  0  0  0  0  0  0
   11.4569   -1.8507    9.7259 H   0  0  0  0  0  0  0  0  0  0  0  0
   11.1335    2.9340    8.0851 H   0  0  0  0  0  0  0  0  0  0  0  0
   12.6203    1.9939    8.3290 H   0  0  0  0  0  0  0  0  0  0  0  0
   13.9927    3.8395    8.7438 H   0  0  0  0  0  0  0  0  0  0  0  0
   12.9614    4.2634    7.3593 H   0  0  0  0  0  0  0  0  0  0  0  0
  1  3  2  0
  1  4  1  0
  1  5  1  0
  2  4  1  0
  2  6  1  0
  4  9  1  0
  4 15  1  0
  5  6  1  0
  5  8  1  0
  6  7  2  3
  9 10  2  0
  9 14  1  0
 10 11  1  0
 11 12  2  0
 12 13  1  0
 13 14  2  0
 15 16  2  0
 15 20  1  0
 16 17  1  0
 17 18  2  0
 18 19  1  0
 19 20  2  0
  2 21  1  0
  7 22  1  0
  8 23  1  0
  8 24  1  0
  8 25  1  0
 10 26  1  0
 11 27  1  0
 12 28  1  0
 13 29  1  0
 14 30  1  0
 16 31  1  0
 17 32  1  0
 19 33  1  0
 20 34  1  0
 35 36  1  0
 36 37  1  0
 37 38  1  0
 38 39  1  0
 39 40  2  0
 40 41  1  0
 41 42  2  0
 42 43  1  0
 43 44  2  0
 38 45  1  0
 45 46  1  0
 46 35  1  0
 44 39  1  0
 36 47  1  0
 36 48  1  0
 37 49  1  0
 37 50  1  0
 40 51  1  0
 41 52  1  0
 42 53  1  0
 43 54  1  0
 45 55  1  0
 45 56  1  0
 46 57  1  0
 46 58  1  0
 18 35  1  0
M  END
>  <attachment_point>  (497) 
32

>  <score>  (497) 
<NA>

$$$$
4djw
     RDKit          3D

 58 61  0  0  0  0  0  0  0  0999 V2000
   22.4950   11.8750   22.5810 C   0  0  0  0  0  0  0  0  0  0  0  0
   22.5380    9.4930   22.4640 N   0  0  0  0  0  0  0  0  0  0  0  0
   22.3600   13.0630   22.3480 O   0  0  0  0  0  0  0  0  0  0  0  0
   22.3390   10.6680   21.5610 C   0  0  0  0  0  0  0  0  0  0  0  0
   22.7860   11.3350   23.8120 N   0  0  0  0  0  0  0  0  0  0  0  0
   22.7800    9.9140   23.7010 C   0  0  0  0  0  0  0  0  0  0  0  0
   22.9970    9.1110   24.7490 N   0  0  0  0  0  0  0  0  0  0  0  0
   23.0220   12.1410   25.0180 C   0  0  0  0  0  0  0  0  0  0  0  0
   20.9020   10.6270   21.0050 C   0  0  0  0  0  0  0  0  0  0  0  0
   20.2720    9.4140   20.7470 C   0  0  0  0  0  0  0  0  0  0  0  0
   18.9690    9.3760   20.2600 C   0  0  0  0  0  0  0  0  0  0  0  0
   18.2800   10.5440   20.0210 C   0  0  0  0  0  0  0  0  0  0  0  0
   18.8920   11.7530   20.2590 C   0  0  0  0  0  0  0  0  0  0  0  0
   20.1950   11.7970   20.7440 C   0  0  0  0  0  0  0  0  0  0  0  0
   23.4880   10.6920   20.5300 C   0  0  0  0  0  0  0  0  0  0  0  0
   23.2110   10.7890   19.1730 C   0  0  0  0  0  0  0  0  0  0  0  0
   24.2350   10.8650   18.2430 C   0  0  0  0  0  0  0  0  0  0  0  0
   25.5500   10.8410   18.6560 C   0  0  0  0  0  0  0  0  0  0  0  0
   25.8710   10.7460   20.0070 C   0  0  0  0  0  0  0  0  0  0  0  0
   24.8260   10.6610   20.9430 C   0  0  0  0  0  0  0  0  0  0  0  0
    0.0000    0.0000    0.0000 H   0  0  0  0  0  0  0  0  0  0  0  0
    0.0000    0.0000    0.0000 H   0  0  0  0  0  0  0  0  0  0  0  0
    0.0000    0.0000    0.0000 H   0  0  0  0  0  0  0  0  0  0  0  0
    0.0000    0.0000    0.0000 H   0  0  0  0  0  0  0  0  0  0  0  0
    0.0000    0.0000    0.0000 H   0  0  0  0  0  0  0  0  0  0  0  0
    0.0000    0.0000    0.0000 H   0  0  0  0  0  0  0  0  0  0  0  0
    0.0000    0.0000    0.0000 H   0  0  0  0  0  0  0  0  0  0  0  0
    0.0000    0.0000    0.0000 H   0  0  0  0  0  0  0  0  0  0  0  0
    0.0000    0.0000    0.0000 H   0  0  0  0  0  0  0  0  0  0  0  0
    0.0000    0.0000    0.0000 H   0  0  0  0  0  0  0  0  0  0  0  0
    0.0000    0.0000    0.0000 H   0  0  0  0  0  0  0  0  0  0  0  0
    0.0000    0.0000    0.0000 H   0  0  0  0  0  0  0  0  0  0  0  0
    0.0000    0.0000    0.0000 H   0  0  0  0  0  0  0  0  0  0  0  0
    0.0000    0.0000    0.0000 H   0  0  0  0  0  0  0  0  0  0  0  0
   12.4697    5.2909    9.1050 N   0  0  0  0  0  0  0  0  0  0  0  0
   12.9235    5.2058    7.7506 C   0  0  0  0  0  0  0  0  0  0  0  0
   11.7538    4.7295    6.9121 C   0  0  0  0  0  0  0  0  0  0  0  0
   11.5661    3.2750    7.3220 C   0  0  0  0  0  0  0  0  0  0  0  0
   10.7313    2.6447    6.3917 N   0  0  0  0  0  0  0  0  0  0  0  0
   11.2073    2.6274    5.0418 C   0  0  0  0  0  0  0  0  0  0  0  0
    9.3487    2.7890    6.4571 C   0  0  0  0  0  0  0  0  0  0  0  0
   11.2176    3.1832    8.7500 C   0  0  0  0  0  0  0  0  0  0  0  0
   11.9112    4.1091    9.6589 C   0  0  0  0  0  0  0  0  0  0  0  0
   13.7579    4.4519    7.7006 H   0  0  0  0  0  0  0  0  0  0  0  0
   13.2880    6.1884    7.4408 H   0  0  0  0  0  0  0  0  0  0  0  0
   11.9308    4.8420    5.8345 H   0  0  0  0  0  0  0  0  0  0  0  0
   10.8760    5.3395    7.2323 H   0  0  0  0  0  0  0  0  0  0  0  0
   12.5936    2.8120    7.2051 H   0  0  0  0  0  0  0  0  0  0  0  0
   10.9283    1.6818    4.5057 H   0  0  0  0  0  0  0  0  0  0  0  0
   12.3306    2.6893    5.0805 H   0  0  0  0  0  0  0  0  0  0  0  0
   10.8043    3.4497    4.4105 H   0  0  0  0  0  0  0  0  0  0  0  0
    8.8722    1.7716    6.3424 H   0  0  0  0  0  0  0  0  0  0  0  0
    8.9066    3.2937    7.3074 H   0  0  0  0  0  0  0  0  0  0  0  0
    8.9958    3.3461    5.5385 H   0  0  0  0  0  0  0  0  0  0  0  0
   11.4573    2.1264    9.0788 H   0  0  0  0  0  0  0  0  0  0  0  0
   10.1088    3.2595    8.9551 H   0  0  0  0  0  0  0  0  0  0  0  0
   12.7379    3.5830   10.2255 H   0  0  0  0  0  0  0  0  0  0  0  0
   11.2326    4.4617   10.4954 H   0  0  0  0  0  0  0  0  0  0  0  0
  1  3  2  0
  1  4  1  0
  1  5  1  0
  2  4  1  0
  2  6  1  0
  4  9  1  0
  4 15  1  0
  5  6  1  0
  5  8  1  0
  6  7  2  3
  9 10  2  0
  9 14  1  0
 10 11  1  0
 11 12  2  0
 12 13  1  0
 13 14  2  0
 15 16  2  0
 15 20  1  0
 16 17  1  0
 17 18  2  0
 18 19  1  0
 19 20  2  0
  2 21  1  0
  7 22  1  0
  8 23  1  0
  8 24  1  0
  8 25  1  0
 10 26  1  0
 11 27  1  0
 12 28  1  0
 13 29  1  0
 14 30  1  0
 16 31  1  0
 17 32  1  0
 19 33  1  0
 20 34  1  0
 35 36  1  0
 36 37  1  0
 37 38  1  0
 38 39  1  0
 39 40  1  0
 39 41  1  0
 38 42  1  0
 42 43  1  0
 43 35  1  0
 36 44  1  0
 36 45  1  0
 37 46  1  0
 37 47  1  0
 38 48  1  0
 40 49  1  0
 40 50  1  0
 40 51  1  0
 41 52  1  0
 41 53  1  0
 41 54  1  0
 42 55  1  0
 42 56  1  0
 43 57  1  0
 43 58  1  0
 18 35  1  0
M  END
>  <attachment_point>  (498) 
32

>  <score>  (498) 
<NA>

$$$$
4djw
     RDKit          3D

 45 47  0  0  0  0  0  0  0  0999 V2000
   22.4950   11.8750   22.5810 C   0  0  0  0  0  0  0  0  0  0  0  0
   22.5380    9.4930   22.4640 N   0  0  0  0  0  0  0  0  0  0  0  0
   22.3600   13.0630   22.3480 O   0  0  0  0  0  0  0  0  0  0  0  0
   22.3390   10.6680   21.5610 C   0  0  0  0  0  0  0  0  0  0  0  0
   22.7860   11.3350   23.8120 N   0  0  0  0  0  0  0  0  0  0  0  0
   22.7800    9.9140   23.7010 C   0  0  0  0  0  0  0  0  0  0  0  0
   22.9970    9.1110   24.7490 N   0  0  0  0  0  0  0  0  0  0  0  0
   23.0220   12.1410   25.0180 C   0  0  0  0  0  0  0  0  0  0  0  0
   20.9020   10.6270   21.0050 C   0  0  0  0  0  0  0  0  0  0  0  0
   20.2720    9.4140   20.7470 C   0  0  0  0  0  0  0  0  0  0  0  0
   18.9690    9.3760   20.2600 C   0  0  0  0  0  0  0  0  0  0  0  0
   18.2800   10.5440   20.0210 C   0  0  0  0  0  0  0  0  0  0  0  0
   18.8920   11.7530   20.2590 C   0  0  0  0  0  0  0  0  0  0  0  0
   20.1950   11.7970   20.7440 C   0  0  0  0  0  0  0  0  0  0  0  0
   23.4880   10.6920   20.5300 C   0  0  0  0  0  0  0  0  0  0  0  0
   23.2110   10.7890   19.1730 C   0  0  0  0  0  0  0  0  0  0  0  0
   24.2350   10.8650   18.2430 C   0  0  0  0  0  0  0  0  0  0  0  0
   25.5500   10.8410   18.6560 C   0  0  0  0  0  0  0  0  0  0  0  0
   25.8710   10.7460   20.0070 C   0  0  0  0  0  0  0  0  0  0  0  0
   24.8260   10.6610   20.9430 C   0  0  0  0  0  0  0  0  0  0  0  0
    0.0000    0.0000    0.0000 H   0  0  0  0  0  0  0  0  0  0  0  0
    0.0000    0.0000    0.0000 H   0  0  0  0  0  0  0  0  0  0  0  0
    0.0000    0.0000    0.0000 H   0  0  0  0  0  0  0  0  0  0  0  0
    0.0000    0.0000    0.0000 H   0  0  0  0  0  0  0  0  0  0  0  0
    0.0000    0.0000    0.0000 H   0  0  0  0  0  0  0  0  0  0  0  0
    0.0000    0.0000    0.0000 H   0  0  0  0  0  0  0  0  0  0  0  0
    0.0000    0.0000    0.0000 H   0  0  0  0  0  0  0  0  0  0  0  0
    0.0000    0.0000    0.0000 H   0  0  0  0  0  0  0  0  0  0  0  0
    0.0000    0.0000    0.0000 H   0  0  0  0  0  0  0  0  0  0  0  0
    0.0000    0.0000    0.0000 H   0  0  0  0  0  0  0  0  0  0  0  0
    0.0000    0.0000    0.0000 H   0  0  0  0  0  0  0  0  0  0  0  0
    0.0000    0.0000    0.0000 H   0  0  0  0  0  0  0  0  0  0  0  0
    0.0000    0.0000    0.0000 H   0  0  0  0  0  0  0  0  0  0  0  0
    0.0000    0.0000    0.0000 H   0  0  0  0  0  0  0  0  0  0  0  0
   12.3891    5.2567    9.0462 C   0  0  0  0  0  0  0  0  0  0  0  0
   11.3064    5.7579    9.2131 O   0  0  0  0  0  0  0  0  0  0  0  0
   12.6891    4.2260    8.1109 C   0  0  0  0  0  0  0  0  0  0  0  0
   13.9187    3.7420    8.0064 C   0  0  0  0  0  0  0  0  0  0  0  0
   14.8848    4.2769    8.8364 O   0  0  0  0  0  0  0  0  0  0  0  0
   14.2367    2.6814    7.0468 C   0  0  0  0  0  0  0  0  0  0  0  0
   15.4222    2.2634    6.9946 O   0  0  0  0  0  0  0  0  0  0  0  0
   13.2728    2.1539    6.2249 O   0  0  0  0  0  0  0  0  0  0  0  0
   11.8861    3.8404    7.4799 H   0  0  0  0  0  0  0  0  0  0  0  0
   15.6314    3.7112    9.2331 H   0  0  0  0  0  0  0  0  0  0  0  0
   13.4821    1.5481    5.4479 H   0  0  0  0  0  0  0  0  0  0  0  0
  1  3  2  0
  1  4  1  0
  1  5  1  0
  2  4  1  0
  2  6  1  0
  4  9  1  0
  4 15  1  0
  5  6  1  0
  5  8  1  0
  6  7  2  3
  9 10  2  0
  9 14  1  0
 10 11  1  0
 11 12  2  0
 12 13  1  0
 13 14  2  0
 15 16  2  0
 15 20  1  0
 16 17  1  0
 17 18  2  0
 18 19  1  0
 19 20  2  0
  2 21  1  0
  7 22  1  0
  8 23  1  0
  8 24  1  0
  8 25  1  0
 10 26  1  0
 11 27  1  0
 12 28  1  0
 13 29  1  0
 14 30  1  0
 16 31  1  0
 17 32  1  0
 19 33  1  0
 20 34  1  0
 35 36  2  0
 35 37  1  0
 37 38  2  3
 38 39  1  0
 38 40  1  0
 40 41  2  0
 40 42  1  0
 37 43  1  0
 39 44  1  0
 42 45  1  0
 18 35  1  0
M  END
>  <attachment_point>  (499) 
32

>  <score>  (499) 
<NA>

$$$$
4djw
     RDKit          3D

 44 47  0  0  0  0  0  0  0  0999 V2000
   22.4950   11.8750   22.5810 C   0  0  0  0  0  0  0  0  0  0  0  0
   22.5380    9.4930   22.4640 N   0  0  0  0  0  0  0  0  0  0  0  0
   22.3600   13.0630   22.3480 O   0  0  0  0  0  0  0  0  0  0  0  0
   22.3390   10.6680   21.5610 C   0  0  0  0  0  0  0  0  0  0  0  0
   22.7860   11.3350   23.8120 N   0  0  0  0  0  0  0  0  0  0  0  0
   22.7800    9.9140   23.7010 C   0  0  0  0  0  0  0  0  0  0  0  0
   22.9970    9.1110   24.7490 N   0  0  0  0  0  0  0  0  0  0  0  0
   23.0220   12.1410   25.0180 C   0  0  0  0  0  0  0  0  0  0  0  0
   20.9020   10.6270   21.0050 C   0  0  0  0  0  0  0  0  0  0  0  0
   20.2720    9.4140   20.7470 C   0  0  0  0  0  0  0  0  0  0  0  0
   18.9690    9.3760   20.2600 C   0  0  0  0  0  0  0  0  0  0  0  0
   18.2800   10.5440   20.0210 C   0  0  0  0  0  0  0  0  0  0  0  0
   18.8920   11.7530   20.2590 C   0  0  0  0  0  0  0  0  0  0  0  0
   20.1950   11.7970   20.7440 C   0  0  0  0  0  0  0  0  0  0  0  0
   23.4880   10.6920   20.5300 C   0  0  0  0  0  0  0  0  0  0  0  0
   23.2110   10.7890   19.1730 C   0  0  0  0  0  0  0  0  0  0  0  0
   24.2350   10.8650   18.2430 C   0  0  0  0  0  0  0  0  0  0  0  0
   25.5500   10.8410   18.6560 C   0  0  0  0  0  0  0  0  0  0  0  0
   25.8710   10.7460   20.0070 C   0  0  0  0  0  0  0  0  0  0  0  0
   24.8260   10.6610   20.9430 C   0  0  0  0  0  0  0  0  0  0  0  0
    0.0000    0.0000    0.0000 H   0  0  0  0  0  0  0  0  0  0  0  0
    0.0000    0.0000    0.0000 H   0  0  0  0  0  0  0  0  0  0  0  0
    0.0000    0.0000    0.0000 H   0  0  0  0  0  0  0  0  0  0  0  0
    0.0000    0.0000    0.0000 H   0  0  0  0  0  0  0  0  0  0  0  0
    0.0000    0.0000    0.0000 H   0  0  0  0  0  0  0  0  0  0  0  0
    0.0000    0.0000    0.0000 H   0  0  0  0  0  0  0  0  0  0  0  0
    0.0000    0.0000    0.0000 H   0  0  0  0  0  0  0  0  0  0  0  0
    0.0000    0.0000    0.0000 H   0  0  0  0  0  0  0  0  0  0  0  0
    0.0000    0.0000    0.0000 H   0  0  0  0  0  0  0  0  0  0  0  0
    0.0000    0.0000    0.0000 H   0  0  0  0  0  0  0  0  0  0  0  0
    0.0000    0.0000    0.0000 H   0  0  0  0  0  0  0  0  0  0  0  0
    0.0000    0.0000    0.0000 H   0  0  0  0  0  0  0  0  0  0  0  0
    0.0000    0.0000    0.0000 H   0  0  0  0  0  0  0  0  0  0  0  0
    0.0000    0.0000    0.0000 H   0  0  0  0  0  0  0  0  0  0  0  0
   12.4347    5.2761    9.0795 C   0  0  0  0  0  0  0  0  0  0  0  0
   12.2589    3.9105    8.9353 C   0  0  0  0  0  0  0  0  0  0  0  0
   11.2206    3.5318    8.1778 N   0  0  0  0  0  0  0  0  0  0  0  0
   10.3828    4.4016    7.5812 C   0  0  0  0  0  0  0  0  0  0  0  0
   10.5424    5.7632    7.7139 C   0  0  0  0  0  0  0  0  0  0  0  0
    9.6960    6.6510    7.1112 F   0  0  0  0  0  0  0  0  0  0  0  0
   11.5984    6.1982    8.4847 C   0  0  0  0  0  0  0  0  0  0  0  0
   12.9421    3.2270    9.4219 H   0  0  0  0  0  0  0  0  0  0  0  0
    9.5427    4.0620    6.9680 H   0  0  0  0  0  0  0  0  0  0  0  0
   11.7479    7.2790    8.6066 H   0  0  0  0  0  0  0  0  0  0  0  0
  1  3  2  0
  1  4  1  0
  1  5  1  0
  2  4  1  0
  2  6  1  0
  4  9  1  0
  4 15  1  0
  5  6  1  0
  5  8  1  0
  6  7  2  3
  9 10  2  0
  9 14  1  0
 10 11  1  0
 11 12  2  0
 12 13  1  0
 13 14  2  0
 15 16  2  0
 15 20  1  0
 16 17  1  0
 17 18  2  0
 18 19  1  0
 19 20  2  0
  2 21  1  0
  7 22  1  0
  8 23  1  0
  8 24  1  0
  8 25  1  0
 10 26  1  0
 11 27  1  0
 12 28  1  0
 13 29  1  0
 14 30  1  0
 16 31  1  0
 17 32  1  0
 19 33  1  0
 20 34  1  0
 35 36  2  0
 36 37  1  0
 37 38  2  0
 38 39  1  0
 39 40  1  0
 39 41  2  0
 41 35  1  0
 36 42  1  0
 38 43  1  0
 41 44  1  0
 18 35  1  0
M  END
>  <attachment_point>  (500) 
32

>  <score>  (500) 
<NA>

$$$$
4djw
     RDKit          3D

 46 49  0  0  0  0  0  0  0  0999 V2000
   22.4950   11.8750   22.5810 C   0  0  0  0  0  0  0  0  0  0  0  0
   22.5380    9.4930   22.4640 N   0  0  0  0  0  0  0  0  0  0  0  0
   22.3600   13.0630   22.3480 O   0  0  0  0  0  0  0  0  0  0  0  0
   22.3390   10.6680   21.5610 C   0  0  0  0  0  0  0  0  0  0  0  0
   22.7860   11.3350   23.8120 N   0  0  0  0  0  0  0  0  0  0  0  0
   22.7800    9.9140   23.7010 C   0  0  0  0  0  0  0  0  0  0  0  0
   22.9970    9.1110   24.7490 N   0  0  0  0  0  0  0  0  0  0  0  0
   23.0220   12.1410   25.0180 C   0  0  0  0  0  0  0  0  0  0  0  0
   20.9020   10.6270   21.0050 C   0  0  0  0  0  0  0  0  0  0  0  0
   20.2720    9.4140   20.7470 C   0  0  0  0  0  0  0  0  0  0  0  0
   18.9690    9.3760   20.2600 C   0  0  0  0  0  0  0  0  0  0  0  0
   18.2800   10.5440   20.0210 C   0  0  0  0  0  0  0  0  0  0  0  0
   18.8920   11.7530   20.2590 C   0  0  0  0  0  0  0  0  0  0  0  0
   20.1950   11.7970   20.7440 C   0  0  0  0  0  0  0  0  0  0  0  0
   23.4880   10.6920   20.5300 C   0  0  0  0  0  0  0  0  0  0  0  0
   23.2110   10.7890   19.1730 C   0  0  0  0  0  0  0  0  0  0  0  0
   24.2350   10.8650   18.2430 C   0  0  0  0  0  0  0  0  0  0  0  0
   25.5500   10.8410   18.6560 C   0  0  0  0  0  0  0  0  0  0  0  0
   25.8710   10.7460   20.0070 C   0  0  0  0  0  0  0  0  0  0  0  0
   24.8260   10.6610   20.9430 C   0  0  0  0  0  0  0  0  0  0  0  0
    0.0000    0.0000    0.0000 H   0  0  0  0  0  0  0  0  0  0  0  0
    0.0000    0.0000    0.0000 H   0  0  0  0  0  0  0  0  0  0  0  0
    0.0000    0.0000    0.0000 H   0  0  0  0  0  0  0  0  0  0  0  0
    0.0000    0.0000    0.0000 H   0  0  0  0  0  0  0  0  0  0  0  0
    0.0000    0.0000    0.0000 H   0  0  0  0  0  0  0  0  0  0  0  0
    0.0000    0.0000    0.0000 H   0  0  0  0  0  0  0  0  0  0  0  0
    0.0000    0.0000    0.0000 H   0  0  0  0  0  0  0  0  0  0  0  0
    0.0000    0.0000    0.0000 H   0  0  0  0  0  0  0  0  0  0  0  0
    0.0000    0.0000    0.0000 H   0  0  0  0  0  0  0  0  0  0  0  0
    0.0000    0.0000    0.0000 H   0  0  0  0  0  0  0  0  0  0  0  0
    0.0000    0.0000    0.0000 H   0  0  0  0  0  0  0  0  0  0  0  0
    0.0000    0.0000    0.0000 H   0  0  0  0  0  0  0  0  0  0  0  0
    0.0000    0.0000    0.0000 H   0  0  0  0  0  0  0  0  0  0  0  0
    0.0000    0.0000    0.0000 H   0  0  0  0  0  0  0  0  0  0  0  0
   12.7750    5.4205    9.3280 C   0  0  0  0  0  0  0  0  0  0  0  0
   12.7750    5.4205    9.3280 C   0  0  0  0  0  0  0  0  0  0  0  0
   12.7750    5.4205    9.3280 C   0  0  0  0  0  0  0  0  0  0  0  0
   12.7750    5.4205    9.3280 N   0  0  0  0  0  0  0  0  0  0  0  0
   12.7750    5.4205    9.3280 C   0  0  0  0  0  0  0  0  0  0  0  0
   12.7750    5.4205    9.3280 C   0  0  0  0  0  0  0  0  0  0  0  0
   12.7750    5.4205    9.3280 F   0  0  0  0  0  0  0  0  0  0  0  0
   12.7750    5.4205    9.3280 F   0  0  0  0  0  0  0  0  0  0  0  0
   12.7750    5.4205    9.3280 F   0  0  0  0  0  0  0  0  0  0  0  0
   12.7750    5.4205    9.3280 N   0  0  0  0  0  0  0  0  0  0  0  0
   12.7750    5.4205    9.3280 H   0  0  0  0  0  0  0  0  0  0  0  0
   12.7750    5.4205    9.3280 H   0  0  0  0  0  0  0  0  0  0  0  0
  1  3  2  0
  1  4  1  0
  1  5  1  0
  2  4  1  0
  2  6  1  0
  4  9  1  0
  4 15  1  0
  5  6  1  0
  5  8  1  0
  6  7  2  3
  9 10  2  0
  9 14  1  0
 10 11  1  0
 11 12  2  0
 12 13  1  0
 13 14  2  0
 15 16  2  0
 15 20  1  0
 16 17  1  0
 17 18  2  0
 18 19  1  0
 19 20  2  0
  2 21  1  0
  7 22  1  0
  8 23  1  0
  8 24  1  0
  8 25  1  0
 10 26  1  0
 11 27  1  0
 12 28  1  0
 13 29  1  0
 14 30  1  0
 16 31  1  0
 17 32  1  0
 19 33  1  0
 20 34  1  0
 35 44  1  0
 35 36  2  0
 36 37  1  0
 37 38  2  0
 38 39  1  0
 39 40  1  0
 39 44  2  0
 40 41  1  0
 40 42  1  0
 40 43  1  0
 36 45  1  0
 37 46  1  0
 18 35  1  0
M  END
>  <attachment_point>  (501) 
32

>  <score>  (501) 
<NA>

$$$$
4djw
     RDKit          3D

 48 52  0  0  0  0  0  0  0  0999 V2000
   22.4950   11.8750   22.5810 C   0  0  0  0  0  0  0  0  0  0  0  0
   22.5380    9.4930   22.4640 N   0  0  0  0  0  0  0  0  0  0  0  0
   22.3600   13.0630   22.3480 O   0  0  0  0  0  0  0  0  0  0  0  0
   22.3390   10.6680   21.5610 C   0  0  0  0  0  0  0  0  0  0  0  0
   22.7860   11.3350   23.8120 N   0  0  0  0  0  0  0  0  0  0  0  0
   22.7800    9.9140   23.7010 C   0  0  0  0  0  0  0  0  0  0  0  0
   22.9970    9.1110   24.7490 N   0  0  0  0  0  0  0  0  0  0  0  0
   23.0220   12.1410   25.0180 C   0  0  0  0  0  0  0  0  0  0  0  0
   20.9020   10.6270   21.0050 C   0  0  0  0  0  0  0  0  0  0  0  0
   20.2720    9.4140   20.7470 C   0  0  0  0  0  0  0  0  0  0  0  0
   18.9690    9.3760   20.2600 C   0  0  0  0  0  0  0  0  0  0  0  0
   18.2800   10.5440   20.0210 C   0  0  0  0  0  0  0  0  0  0  0  0
   18.8920   11.7530   20.2590 C   0  0  0  0  0  0  0  0  0  0  0  0
   20.1950   11.7970   20.7440 C   0  0  0  0  0  0  0  0  0  0  0  0
   23.4880   10.6920   20.5300 C   0  0  0  0  0  0  0  0  0  0  0  0
   23.2110   10.7890   19.1730 C   0  0  0  0  0  0  0  0  0  0  0  0
   24.2350   10.8650   18.2430 C   0  0  0  0  0  0  0  0  0  0  0  0
   25.5500   10.8410   18.6560 C   0  0  0  0  0  0  0  0  0  0  0  0
   25.8710   10.7460   20.0070 C   0  0  0  0  0  0  0  0  0  0  0  0
   24.8260   10.6610   20.9430 C   0  0  0  0  0  0  0  0  0  0  0  0
    0.0000    0.0000    0.0000 H   0  0  0  0  0  0  0  0  0  0  0  0
    0.0000    0.0000    0.0000 H   0  0  0  0  0  0  0  0  0  0  0  0
    0.0000    0.0000    0.0000 H   0  0  0  0  0  0  0  0  0  0  0  0
    0.0000    0.0000    0.0000 H   0  0  0  0  0  0  0  0  0  0  0  0
    0.0000    0.0000    0.0000 H   0  0  0  0  0  0  0  0  0  0  0  0
    0.0000    0.0000    0.0000 H   0  0  0  0  0  0  0  0  0  0  0  0
    0.0000    0.0000    0.0000 H   0  0  0  0  0  0  0  0  0  0  0  0
    0.0000    0.0000    0.0000 H   0  0  0  0  0  0  0  0  0  0  0  0
    0.0000    0.0000    0.0000 H   0  0  0  0  0  0  0  0  0  0  0  0
    0.0000    0.0000    0.0000 H   0  0  0  0  0  0  0  0  0  0  0  0
    0.0000    0.0000    0.0000 H   0  0  0  0  0  0  0  0  0  0  0  0
    0.0000    0.0000    0.0000 H   0  0  0  0  0  0  0  0  0  0  0  0
    0.0000    0.0000    0.0000 H   0  0  0  0  0  0  0  0  0  0  0  0
    0.0000    0.0000    0.0000 H   0  0  0  0  0  0  0  0  0  0  0  0
   12.7750    5.4205    9.3280 C   0  0  0  0  0  0  0  0  0  0  0  0
   12.7750    5.4205    9.3280 C   0  0  0  0  0  0  0  0  0  0  0  0
   12.7750    5.4205    9.3280 C   0  0  0  0  0  0  0  0  0  0  0  0
   12.7750    5.4205    9.3280 C   0  0  0  0  0  0  0  0  0  0  0  0
   12.7750    5.4205    9.3280 C   0  0  0  0  0  0  0  0  0  0  0  0
   12.7750    5.4205    9.3280 N   0  0  0  0  0  0  0  0  0  0  0  0
   12.7750    5.4205    9.3280 N   0  0  0  0  0  0  0  0  0  0  0  0
   12.7750    5.4205    9.3280 C   0  0  0  0  0  0  0  0  0  0  0  0
   12.7750    5.4205    9.3280 C   0  0  0  0  0  0  0  0  0  0  0  0
   12.7750    5.4205    9.3280 H   0  0  0  0  0  0  0  0  0  0  0  0
   12.7750    5.4205    9.3280 H   0  0  0  0  0  0  0  0  0  0  0  0
   12.7750    5.4205    9.3280 H   0  0  0  0  0  0  0  0  0  0  0  0
   12.7750    5.4205    9.3280 H   0  0  0  0  0  0  0  0  0  0  0  0
   12.7750    5.4205    9.3280 H   0  0  0  0  0  0  0  0  0  0  0  0
  1  3  2  0
  1  4  1  0
  1  5  1  0
  2  4  1  0
  2  6  1  0
  4  9  1  0
  4 15  1  0
  5  6  1  0
  5  8  1  0
  6  7  2  3
  9 10  2  0
  9 14  1  0
 10 11  1  0
 11 12  2  0
 12 13  1  0
 13 14  2  0
 15 16  2  0
 15 20  1  0
 16 17  1  0
 17 18  2  0
 18 19  1  0
 19 20  2  0
  2 21  1  0
  7 22  1  0
  8 23  1  0
  8 24  1  0
  8 25  1  0
 10 26  1  0
 11 27  1  0
 12 28  1  0
 13 29  1  0
 14 30  1  0
 16 31  1  0
 17 32  1  0
 19 33  1  0
 20 34  1  0
 35 43  1  0
 35 36  2  0
 36 37  1  0
 37 38  2  0
 38 42  1  0
 38 39  1  0
 39 40  2  0
 40 41  1  0
 41 42  1  0
 42 43  2  0
 36 44  1  0
 37 45  1  0
 39 46  1  0
 41 47  1  0
 43 48  1  0
 18 35  1  0
M  END
>  <attachment_point>  (502) 
32

>  <score>  (502) 
<NA>

$$$$
4djw
     RDKit          3D

 43 46  0  0  0  0  0  0  0  0999 V2000
   22.4950   11.8750   22.5810 C   0  0  0  0  0  0  0  0  0  0  0  0
   22.5380    9.4930   22.4640 N   0  0  0  0  0  0  0  0  0  0  0  0
   22.3600   13.0630   22.3480 O   0  0  0  0  0  0  0  0  0  0  0  0
   22.3390   10.6680   21.5610 C   0  0  0  0  0  0  0  0  0  0  0  0
   22.7860   11.3350   23.8120 N   0  0  0  0  0  0  0  0  0  0  0  0
   22.7800    9.9140   23.7010 C   0  0  0  0  0  0  0  0  0  0  0  0
   22.9970    9.1110   24.7490 N   0  0  0  0  0  0  0  0  0  0  0  0
   23.0220   12.1410   25.0180 C   0  0  0  0  0  0  0  0  0  0  0  0
   20.9020   10.6270   21.0050 C   0  0  0  0  0  0  0  0  0  0  0  0
   20.2720    9.4140   20.7470 C   0  0  0  0  0  0  0  0  0  0  0  0
   18.9690    9.3760   20.2600 C   0  0  0  0  0  0  0  0  0  0  0  0
   18.2800   10.5440   20.0210 C   0  0  0  0  0  0  0  0  0  0  0  0
   18.8920   11.7530   20.2590 C   0  0  0  0  0  0  0  0  0  0  0  0
   20.1950   11.7970   20.7440 C   0  0  0  0  0  0  0  0  0  0  0  0
   23.4880   10.6920   20.5300 C   0  0  0  0  0  0  0  0  0  0  0  0
   23.2110   10.7890   19.1730 C   0  0  0  0  0  0  0  0  0  0  0  0
   24.2350   10.8650   18.2430 C   0  0  0  0  0  0  0  0  0  0  0  0
   25.5500   10.8410   18.6560 C   0  0  0  0  0  0  0  0  0  0  0  0
   25.8710   10.7460   20.0070 C   0  0  0  0  0  0  0  0  0  0  0  0
   24.8260   10.6610   20.9430 C   0  0  0  0  0  0  0  0  0  0  0  0
    0.0000    0.0000    0.0000 H   0  0  0  0  0  0  0  0  0  0  0  0
    0.0000    0.0000    0.0000 H   0  0  0  0  0  0  0  0  0  0  0  0
    0.0000    0.0000    0.0000 H   0  0  0  0  0  0  0  0  0  0  0  0
    0.0000    0.0000    0.0000 H   0  0  0  0  0  0  0  0  0  0  0  0
    0.0000    0.0000    0.0000 H   0  0  0  0  0  0  0  0  0  0  0  0
    0.0000    0.0000    0.0000 H   0  0  0  0  0  0  0  0  0  0  0  0
    0.0000    0.0000    0.0000 H   0  0  0  0  0  0  0  0  0  0  0  0
    0.0000    0.0000    0.0000 H   0  0  0  0  0  0  0  0  0  0  0  0
    0.0000    0.0000    0.0000 H   0  0  0  0  0  0  0  0  0  0  0  0
    0.0000    0.0000    0.0000 H   0  0  0  0  0  0  0  0  0  0  0  0
    0.0000    0.0000    0.0000 H   0  0  0  0  0  0  0  0  0  0  0  0
    0.0000    0.0000    0.0000 H   0  0  0  0  0  0  0  0  0  0  0  0
    0.0000    0.0000    0.0000 H   0  0  0  0  0  0  0  0  0  0  0  0
    0.0000    0.0000    0.0000 H   0  0  0  0  0  0  0  0  0  0  0  0
   12.7750    5.4205    9.3280 C   0  0  0  0  0  0  0  0  0  0  0  0
   12.7750    5.4205    9.3280 N   0  0  0  0  0  0  0  0  0  0  0  0
   12.7750    5.4205    9.3280 O   0  0  0  0  0  0  0  0  0  0  0  0
   12.7750    5.4205    9.3280 C   0  0  0  0  0  0  0  0  0  0  0  0
   12.7750    5.4205    9.3280 C   0  0  0  0  0  0  0  0  0  0  0  0
   12.7750    5.4205    9.3280 N   0  0  0  0  0  0  0  0  0  0  0  0
   12.7750    5.4205    9.3280 H   0  0  0  0  0  0  0  0  0  0  0  0
   12.7750    5.4205    9.3280 H   0  0  0  0  0  0  0  0  0  0  0  0
   12.7750    5.4205    9.3280 H   0  0  0  0  0  0  0  0  0  0  0  0
  1  3  2  0
  1  4  1  0
  1  5  1  0
  2  4  1  0
  2  6  1  0
  4  9  1  0
  4 15  1  0
  5  6  1  0
  5  8  1  0
  6  7  2  3
  9 10  2  0
  9 14  1  0
 10 11  1  0
 11 12  2  0
 12 13  1  0
 13 14  2  0
 15 16  2  0
 15 20  1  0
 16 17  1  0
 17 18  2  0
 18 19  1  0
 19 20  2  0
  2 21  1  0
  7 22  1  0
  8 23  1  0
  8 24  1  0
  8 25  1  0
 10 26  1  0
 11 27  1  0
 12 28  1  0
 13 29  1  0
 14 30  1  0
 16 31  1  0
 17 32  1  0
 19 33  1  0
 20 34  1  0
 35 40  1  0
 35 36  2  0
 36 37  1  0
 37 38  1  0
 38 39  1  0
 38 40  2  0
 39 41  1  0
 39 42  1  0
 39 43  1  0
 18 35  1  0
M  END
>  <attachment_point>  (503) 
32

>  <score>  (503) 
<NA>

$$$$
4djw
     RDKit          3D

 43 46  0  0  0  0  0  0  0  0999 V2000
   22.4950   11.8750   22.5810 C   0  0  0  0  0  0  0  0  0  0  0  0
   22.5380    9.4930   22.4640 N   0  0  0  0  0  0  0  0  0  0  0  0
   22.3600   13.0630   22.3480 O   0  0  0  0  0  0  0  0  0  0  0  0
   22.3390   10.6680   21.5610 C   0  0  0  0  0  0  0  0  0  0  0  0
   22.7860   11.3350   23.8120 N   0  0  0  0  0  0  0  0  0  0  0  0
   22.7800    9.9140   23.7010 C   0  0  0  0  0  0  0  0  0  0  0  0
   22.9970    9.1110   24.7490 N   0  0  0  0  0  0  0  0  0  0  0  0
   23.0220   12.1410   25.0180 C   0  0  0  0  0  0  0  0  0  0  0  0
   20.9020   10.6270   21.0050 C   0  0  0  0  0  0  0  0  0  0  0  0
   20.2720    9.4140   20.7470 C   0  0  0  0  0  0  0  0  0  0  0  0
   18.9690    9.3760   20.2600 C   0  0  0  0  0  0  0  0  0  0  0  0
   18.2800   10.5440   20.0210 C   0  0  0  0  0  0  0  0  0  0  0  0
   18.8920   11.7530   20.2590 C   0  0  0  0  0  0  0  0  0  0  0  0
   20.1950   11.7970   20.7440 C   0  0  0  0  0  0  0  0  0  0  0  0
   23.4880   10.6920   20.5300 C   0  0  0  0  0  0  0  0  0  0  0  0
   23.2110   10.7890   19.1730 C   0  0  0  0  0  0  0  0  0  0  0  0
   24.2350   10.8650   18.2430 C   0  0  0  0  0  0  0  0  0  0  0  0
   25.5500   10.8410   18.6560 C   0  0  0  0  0  0  0  0  0  0  0  0
   25.8710   10.7460   20.0070 C   0  0  0  0  0  0  0  0  0  0  0  0
   24.8260   10.6610   20.9430 C   0  0  0  0  0  0  0  0  0  0  0  0
    0.0000    0.0000    0.0000 H   0  0  0  0  0  0  0  0  0  0  0  0
    0.0000    0.0000    0.0000 H   0  0  0  0  0  0  0  0  0  0  0  0
    0.0000    0.0000    0.0000 H   0  0  0  0  0  0  0  0  0  0  0  0
    0.0000    0.0000    0.0000 H   0  0  0  0  0  0  0  0  0  0  0  0
    0.0000    0.0000    0.0000 H   0  0  0  0  0  0  0  0  0  0  0  0
    0.0000    0.0000    0.0000 H   0  0  0  0  0  0  0  0  0  0  0  0
    0.0000    0.0000    0.0000 H   0  0  0  0  0  0  0  0  0  0  0  0
    0.0000    0.0000    0.0000 H   0  0  0  0  0  0  0  0  0  0  0  0
    0.0000    0.0000    0.0000 H   0  0  0  0  0  0  0  0  0  0  0  0
    0.0000    0.0000    0.0000 H   0  0  0  0  0  0  0  0  0  0  0  0
    0.0000    0.0000    0.0000 H   0  0  0  0  0  0  0  0  0  0  0  0
    0.0000    0.0000    0.0000 H   0  0  0  0  0  0  0  0  0  0  0  0
    0.0000    0.0000    0.0000 H   0  0  0  0  0  0  0  0  0  0  0  0
    0.0000    0.0000    0.0000 H   0  0  0  0  0  0  0  0  0  0  0  0
   12.7750    5.4205    9.3280 C   0  0  0  0  0  0  0  0  0  0  0  0
   12.7750    5.4205    9.3280 N   0  0  0  0  0  0  0  0  0  0  0  0
   12.7750    5.4205    9.3280 C   0  0  0  0  0  0  0  0  0  0  0  0
   12.7750    5.4205    9.3280 C   0  0  0  0  0  0  0  0  0  0  0  0
   12.7750    5.4205    9.3280 N   0  0  0  0  0  0  0  0  0  0  0  0
   12.7750    5.4205    9.3280 O   0  0  0  0  0  0  0  0  0  0  0  0
   12.7750    5.4205    9.3280 H   0  0  0  0  0  0  0  0  0  0  0  0
   12.7750    5.4205    9.3280 H   0  0  0  0  0  0  0  0  0  0  0  0
   12.7750    5.4205    9.3280 H   0  0  0  0  0  0  0  0  0  0  0  0
  1  3  2  0
  1  4  1  0
  1  5  1  0
  2  4  1  0
  2  6  1  0
  4  9  1  0
  4 15  1  0
  5  6  1  0
  5  8  1  0
  6  7  2  3
  9 10  2  0
  9 14  1  0
 10 11  1  0
 11 12  2  0
 12 13  1  0
 13 14  2  0
 15 16  2  0
 15 20  1  0
 16 17  1  0
 17 18  2  0
 18 19  1  0
 19 20  2  0
  2 21  1  0
  7 22  1  0
  8 23  1  0
  8 24  1  0
  8 25  1  0
 10 26  1  0
 11 27  1  0
 12 28  1  0
 13 29  1  0
 14 30  1  0
 16 31  1  0
 17 32  1  0
 19 33  1  0
 20 34  1  0
 35 40  1  0
 35 36  2  0
 36 37  1  0
 37 38  1  0
 37 39  2  0
 39 40  1  0
 38 41  1  0
 38 42  1  0
 38 43  1  0
 18 35  1  0
M  END
>  <attachment_point>  (504) 
32

>  <score>  (504) 
<NA>

$$$$
4djw
     RDKit          3D

 57 61  0  0  0  0  0  0  0  0999 V2000
   22.4950   11.8750   22.5810 C   0  0  0  0  0  0  0  0  0  0  0  0
   22.5380    9.4930   22.4640 N   0  0  0  0  0  0  0  0  0  0  0  0
   22.3600   13.0630   22.3480 O   0  0  0  0  0  0  0  0  0  0  0  0
   22.3390   10.6680   21.5610 C   0  0  0  0  0  0  0  0  0  0  0  0
   22.7860   11.3350   23.8120 N   0  0  0  0  0  0  0  0  0  0  0  0
   22.7800    9.9140   23.7010 C   0  0  0  0  0  0  0  0  0  0  0  0
   22.9970    9.1110   24.7490 N   0  0  0  0  0  0  0  0  0  0  0  0
   23.0220   12.1410   25.0180 C   0  0  0  0  0  0  0  0  0  0  0  0
   20.9020   10.6270   21.0050 C   0  0  0  0  0  0  0  0  0  0  0  0
   20.2720    9.4140   20.7470 C   0  0  0  0  0  0  0  0  0  0  0  0
   18.9690    9.3760   20.2600 C   0  0  0  0  0  0  0  0  0  0  0  0
   18.2800   10.5440   20.0210 C   0  0  0  0  0  0  0  0  0  0  0  0
   18.8920   11.7530   20.2590 C   0  0  0  0  0  0  0  0  0  0  0  0
   20.1950   11.7970   20.7440 C   0  0  0  0  0  0  0  0  0  0  0  0
   23.4880   10.6920   20.5300 C   0  0  0  0  0  0  0  0  0  0  0  0
   23.2110   10.7890   19.1730 C   0  0  0  0  0  0  0  0  0  0  0  0
   24.2350   10.8650   18.2430 C   0  0  0  0  0  0  0  0  0  0  0  0
   25.5500   10.8410   18.6560 C   0  0  0  0  0  0  0  0  0  0  0  0
   25.8710   10.7460   20.0070 C   0  0  0  0  0  0  0  0  0  0  0  0
   24.8260   10.6610   20.9430 C   0  0  0  0  0  0  0  0  0  0  0  0
    0.0000    0.0000    0.0000 H   0  0  0  0  0  0  0  0  0  0  0  0
    0.0000    0.0000    0.0000 H   0  0  0  0  0  0  0  0  0  0  0  0
    0.0000    0.0000    0.0000 H   0  0  0  0  0  0  0  0  0  0  0  0
    0.0000    0.0000    0.0000 H   0  0  0  0  0  0  0  0  0  0  0  0
    0.0000    0.0000    0.0000 H   0  0  0  0  0  0  0  0  0  0  0  0
    0.0000    0.0000    0.0000 H   0  0  0  0  0  0  0  0  0  0  0  0
    0.0000    0.0000    0.0000 H   0  0  0  0  0  0  0  0  0  0  0  0
    0.0000    0.0000    0.0000 H   0  0  0  0  0  0  0  0  0  0  0  0
    0.0000    0.0000    0.0000 H   0  0  0  0  0  0  0  0  0  0  0  0
    0.0000    0.0000    0.0000 H   0  0  0  0  0  0  0  0  0  0  0  0
    0.0000    0.0000    0.0000 H   0  0  0  0  0  0  0  0  0  0  0  0
    0.0000    0.0000    0.0000 H   0  0  0  0  0  0  0  0  0  0  0  0
    0.0000    0.0000    0.0000 H   0  0  0  0  0  0  0  0  0  0  0  0
    0.0000    0.0000    0.0000 H   0  0  0  0  0  0  0  0  0  0  0  0
   12.7750    5.4205    9.3280 N   0  0  0  0  0  0  0  0  0  0  0  0
   12.7750    5.4205    9.3280 C   0  0  0  0  0  0  0  0  0  0  0  0
   12.7750    5.4205    9.3280 C   0  0  0  0  0  0  0  0  0  0  0  0
   12.7750    5.4205    9.3280 N   0  0  0  0  0  0  0  0  0  0  0  0
   12.7750    5.4205    9.3280 C   0  0  0  0  0  0  0  0  0  0  0  0
   12.7750    5.4205    9.3280 N   0  0  0  0  0  0  0  0  0  0  0  0
   12.7750    5.4205    9.3280 C   0  0  0  0  0  0  0  0  0  0  0  0
   12.7750    5.4205    9.3280 C   0  0  0  0  0  0  0  0  0  0  0  0
   12.7750    5.4205    9.3280 C   0  0  0  0  0  0  0  0  0  0  0  0
   12.7750    5.4205    9.3280 N   0  0  0  0  0  0  0  0  0  0  0  0
   12.7750    5.4205    9.3280 C   0  0  0  0  0  0  0  0  0  0  0  0
   12.7750    5.4205    9.3280 C   0  0  0  0  0  0  0  0  0  0  0  0
   12.7750    5.4205    9.3280 H   0  0  0  0  0  0  0  0  0  0  0  0
   12.7750    5.4205    9.3280 H   0  0  0  0  0  0  0  0  0  0  0  0
   12.7750    5.4205    9.3280 H   0  0  0  0  0  0  0  0  0  0  0  0
   12.7750    5.4205    9.3280 H   0  0  0  0  0  0  0  0  0  0  0  0
   12.7750    5.4205    9.3280 H   0  0  0  0  0  0  0  0  0  0  0  0
   12.7750    5.4205    9.3280 H   0  0  0  0  0  0  0  0  0  0  0  0
   12.7750    5.4205    9.3280 H   0  0  0  0  0  0  0  0  0  0  0  0
   12.7750    5.4205    9.3280 H   0  0  0  0  0  0  0  0  0  0  0  0
   12.7750    5.4205    9.3280 H   0  0  0  0  0  0  0  0  0  0  0  0
   12.7750    5.4205    9.3280 H   0  0  0  0  0  0  0  0  0  0  0  0
   12.7750    5.4205    9.3280 H   0  0  0  0  0  0  0  0  0  0  0  0
  1  3  2  0
  1  4  1  0
  1  5  1  0
  2  4  1  0
  2  6  1  0
  4  9  1  0
  4 15  1  0
  5  6  1  0
  5  8  1  0
  6  7  2  3
  9 10  2  0
  9 14  1  0
 10 11  1  0
 11 12  2  0
 12 13  1  0
 13 14  2  0
 15 16  2  0
 15 20  1  0
 16 17  1  0
 17 18  2  0
 18 19  1  0
 19 20  2  0
  2 21  1  0
  7 22  1  0
  8 23  1  0
  8 24  1  0
  8 25  1  0
 10 26  1  0
 11 27  1  0
 12 28  1  0
 13 29  1  0
 14 30  1  0
 16 31  1  0
 17 32  1  0
 19 33  1  0
 20 34  1  0
 35 46  1  0
 35 36  1  0
 36 37  1  0
 37 38  1  0
 38 39  1  0
 38 45  1  0
 39 44  1  0
 39 40  2  0
 40 41  1  0
 41 42  2  0
 42 43  1  0
 43 44  2  0
 45 46  1  0
 36 47  1  0
 36 48  1  0
 37 49  1  0
 37 50  1  0
 41 51  1  0
 42 52  1  0
 43 53  1  0
 45 54  1  0
 45 55  1  0
 46 56  1  0
 46 57  1  0
 18 35  1  0
M  END
>  <attachment_point>  (505) 
32

>  <score>  (505) 
<NA>

$$$$
4djw
     RDKit          3D

 49 53  0  0  0  0  0  0  0  0999 V2000
   22.4950   11.8750   22.5810 C   0  0  0  0  0  0  0  0  0  0  0  0
   22.5380    9.4930   22.4640 N   0  0  0  0  0  0  0  0  0  0  0  0
   22.3600   13.0630   22.3480 O   0  0  0  0  0  0  0  0  0  0  0  0
   22.3390   10.6680   21.5610 C   0  0  0  0  0  0  0  0  0  0  0  0
   22.7860   11.3350   23.8120 N   0  0  0  0  0  0  0  0  0  0  0  0
   22.7800    9.9140   23.7010 C   0  0  0  0  0  0  0  0  0  0  0  0
   22.9970    9.1110   24.7490 N   0  0  0  0  0  0  0  0  0  0  0  0
   23.0220   12.1410   25.0180 C   0  0  0  0  0  0  0  0  0  0  0  0
   20.9020   10.6270   21.0050 C   0  0  0  0  0  0  0  0  0  0  0  0
   20.2720    9.4140   20.7470 C   0  0  0  0  0  0  0  0  0  0  0  0
   18.9690    9.3760   20.2600 C   0  0  0  0  0  0  0  0  0  0  0  0
   18.2800   10.5440   20.0210 C   0  0  0  0  0  0  0  0  0  0  0  0
   18.8920   11.7530   20.2590 C   0  0  0  0  0  0  0  0  0  0  0  0
   20.1950   11.7970   20.7440 C   0  0  0  0  0  0  0  0  0  0  0  0
   23.4880   10.6920   20.5300 C   0  0  0  0  0  0  0  0  0  0  0  0
   23.2110   10.7890   19.1730 C   0  0  0  0  0  0  0  0  0  0  0  0
   24.2350   10.8650   18.2430 C   0  0  0  0  0  0  0  0  0  0  0  0
   25.5500   10.8410   18.6560 C   0  0  0  0  0  0  0  0  0  0  0  0
   25.8710   10.7460   20.0070 C   0  0  0  0  0  0  0  0  0  0  0  0
   24.8260   10.6610   20.9430 C   0  0  0  0  0  0  0  0  0  0  0  0
    0.0000    0.0000    0.0000 H   0  0  0  0  0  0  0  0  0  0  0  0
    0.0000    0.0000    0.0000 H   0  0  0  0  0  0  0  0  0  0  0  0
    0.0000    0.0000    0.0000 H   0  0  0  0  0  0  0  0  0  0  0  0
    0.0000    0.0000    0.0000 H   0  0  0  0  0  0  0  0  0  0  0  0
    0.0000    0.0000    0.0000 H   0  0  0  0  0  0  0  0  0  0  0  0
    0.0000    0.0000    0.0000 H   0  0  0  0  0  0  0  0  0  0  0  0
    0.0000    0.0000    0.0000 H   0  0  0  0  0  0  0  0  0  0  0  0
    0.0000    0.0000    0.0000 H   0  0  0  0  0  0  0  0  0  0  0  0
    0.0000    0.0000    0.0000 H   0  0  0  0  0  0  0  0  0  0  0  0
    0.0000    0.0000    0.0000 H   0  0  0  0  0  0  0  0  0  0  0  0
    0.0000    0.0000    0.0000 H   0  0  0  0  0  0  0  0  0  0  0  0
    0.0000    0.0000    0.0000 H   0  0  0  0  0  0  0  0  0  0  0  0
    0.0000    0.0000    0.0000 H   0  0  0  0  0  0  0  0  0  0  0  0
    0.0000    0.0000    0.0000 H   0  0  0  0  0  0  0  0  0  0  0  0
   12.7750    5.4205    9.3280 N   0  0  0  0  0  0  0  0  0  0  0  0
   12.7750    5.4205    9.3280 C   0  0  0  0  0  0  0  0  0  0  0  0
   12.7750    5.4205    9.3280 O   0  0  0  0  0  0  0  0  0  0  0  0
   12.7750    5.4205    9.3280 C   0  0  0  0  0  0  0  0  0  0  0  0
   12.7750    5.4205    9.3280 C   0  0  0  0  0  0  0  0  0  0  0  0
   12.7750    5.4205    9.3280 C   0  0  0  0  0  0  0  0  0  0  0  0
   12.7750    5.4205    9.3280 C   0  0  0  0  0  0  0  0  0  0  0  0
   12.7750    5.4205    9.3280 C   0  0  0  0  0  0  0  0  0  0  0  0
   12.7750    5.4205    9.3280 C   0  0  0  0  0  0  0  0  0  0  0  0
   12.7750    5.4205    9.3280 C   0  0  0  0  0  0  0  0  0  0  0  0
   12.7750    5.4205    9.3280 O   0  0  0  0  0  0  0  0  0  0  0  0
   12.7750    5.4205    9.3280 H   0  0  0  0  0  0  0  0  0  0  0  0
   12.7750    5.4205    9.3280 H   0  0  0  0  0  0  0  0  0  0  0  0
   12.7750    5.4205    9.3280 H   0  0  0  0  0  0  0  0  0  0  0  0
   12.7750    5.4205    9.3280 H   0  0  0  0  0  0  0  0  0  0  0  0
  1  3  2  0
  1  4  1  0
  1  5  1  0
  2  4  1  0
  2  6  1  0
  4  9  1  0
  4 15  1  0
  5  6  1  0
  5  8  1  0
  6  7  2  3
  9 10  2  0
  9 14  1  0
 10 11  1  0
 11 12  2  0
 12 13  1  0
 13 14  2  0
 15 16  2  0
 15 20  1  0
 16 17  1  0
 17 18  2  0
 18 19  1  0
 19 20  2  0
  2 21  1  0
  7 22  1  0
  8 23  1  0
  8 24  1  0
  8 25  1  0
 10 26  1  0
 11 27  1  0
 12 28  1  0
 13 29  1  0
 14 30  1  0
 16 31  1  0
 17 32  1  0
 19 33  1  0
 20 34  1  0
 35 44  1  0
 35 36  1  0
 36 37  2  0
 36 38  1  0
 38 43  2  0
 38 39  1  0
 39 40  2  0
 40 41  1  0
 41 42  2  0
 42 43  1  0
 43 44  1  0
 44 45  2  0
 39 46  1  0
 40 47  1  0
 41 48  1  0
 42 49  1  0
 18 35  1  0
M  END
>  <attachment_point>  (506) 
32

>  <score>  (506) 
<NA>

$$$$
4djw
     RDKit          3D

 53 56  0  0  0  0  0  0  0  0999 V2000
   22.4950   11.8750   22.5810 C   0  0  0  0  0  0  0  0  0  0  0  0
   22.5380    9.4930   22.4640 N   0  0  0  0  0  0  0  0  0  0  0  0
   22.3600   13.0630   22.3480 O   0  0  0  0  0  0  0  0  0  0  0  0
   22.3390   10.6680   21.5610 C   0  0  0  0  0  0  0  0  0  0  0  0
   22.7860   11.3350   23.8120 N   0  0  0  0  0  0  0  0  0  0  0  0
   22.7800    9.9140   23.7010 C   0  0  0  0  0  0  0  0  0  0  0  0
   22.9970    9.1110   24.7490 N   0  0  0  0  0  0  0  0  0  0  0  0
   23.0220   12.1410   25.0180 C   0  0  0  0  0  0  0  0  0  0  0  0
   20.9020   10.6270   21.0050 C   0  0  0  0  0  0  0  0  0  0  0  0
   20.2720    9.4140   20.7470 C   0  0  0  0  0  0  0  0  0  0  0  0
   18.9690    9.3760   20.2600 C   0  0  0  0  0  0  0  0  0  0  0  0
   18.2800   10.5440   20.0210 C   0  0  0  0  0  0  0  0  0  0  0  0
   18.8920   11.7530   20.2590 C   0  0  0  0  0  0  0  0  0  0  0  0
   20.1950   11.7970   20.7440 C   0  0  0  0  0  0  0  0  0  0  0  0
   23.4880   10.6920   20.5300 C   0  0  0  0  0  0  0  0  0  0  0  0
   23.2110   10.7890   19.1730 C   0  0  0  0  0  0  0  0  0  0  0  0
   24.2350   10.8650   18.2430 C   0  0  0  0  0  0  0  0  0  0  0  0
   25.5500   10.8410   18.6560 C   0  0  0  0  0  0  0  0  0  0  0  0
   25.8710   10.7460   20.0070 C   0  0  0  0  0  0  0  0  0  0  0  0
   24.8260   10.6610   20.9430 C   0  0  0  0  0  0  0  0  0  0  0  0
    0.0000    0.0000    0.0000 H   0  0  0  0  0  0  0  0  0  0  0  0
    0.0000    0.0000    0.0000 H   0  0  0  0  0  0  0  0  0  0  0  0
    0.0000    0.0000    0.0000 H   0  0  0  0  0  0  0  0  0  0  0  0
    0.0000    0.0000    0.0000 H   0  0  0  0  0  0  0  0  0  0  0  0
    0.0000    0.0000    0.0000 H   0  0  0  0  0  0  0  0  0  0  0  0
    0.0000    0.0000    0.0000 H   0  0  0  0  0  0  0  0  0  0  0  0
    0.0000    0.0000    0.0000 H   0  0  0  0  0  0  0  0  0  0  0  0
    0.0000    0.0000    0.0000 H   0  0  0  0  0  0  0  0  0  0  0  0
    0.0000    0.0000    0.0000 H   0  0  0  0  0  0  0  0  0  0  0  0
    0.0000    0.0000    0.0000 H   0  0  0  0  0  0  0  0  0  0  0  0
    0.0000    0.0000    0.0000 H   0  0  0  0  0  0  0  0  0  0  0  0
    0.0000    0.0000    0.0000 H   0  0  0  0  0  0  0  0  0  0  0  0
    0.0000    0.0000    0.0000 H   0  0  0  0  0  0  0  0  0  0  0  0
    0.0000    0.0000    0.0000 H   0  0  0  0  0  0  0  0  0  0  0  0
   12.7750    5.4205    9.3280 C   0  0  0  0  0  0  0  0  0  0  0  0
   12.7750    5.4205    9.3280 N   0  0  0  0  0  0  0  0  0  0  0  0
   12.7750    5.4205    9.3280 C   0  0  0  0  0  0  0  0  0  0  0  0
   12.7750    5.4205    9.3280 C   0  0  0  0  0  0  0  0  0  0  0  0
   12.7750    5.4205    9.3280 C   0  0  0  0  0  0  0  0  0  0  0  0
   12.7750    5.4205    9.3280 C   0  0  0  0  0  0  0  0  0  0  0  0
   12.7750    5.4205    9.3280 C   0  0  0  0  0  0  0  0  0  0  0  0
   12.7750    5.4205    9.3280 C   0  0  0  0  0  0  0  0  0  0  0  0
   12.7750    5.4205    9.3280 C   0  0  0  0  0  0  0  0  0  0  0  0
   12.7750    5.4205    9.3280 H   0  0  0  0  0  0  0  0  0  0  0  0
   12.7750    5.4205    9.3280 H   0  0  0  0  0  0  0  0  0  0  0  0
   12.7750    5.4205    9.3280 H   0  0  0  0  0  0  0  0  0  0  0  0
   12.7750    5.4205    9.3280 H   0  0  0  0  0  0  0  0  0  0  0  0
   12.7750    5.4205    9.3280 H   0  0  0  0  0  0  0  0  0  0  0  0
   12.7750    5.4205    9.3280 H   0  0  0  0  0  0  0  0  0  0  0  0
   12.7750    5.4205    9.3280 H   0  0  0  0  0  0  0  0  0  0  0  0
   12.7750    5.4205    9.3280 H   0  0  0  0  0  0  0  0  0  0  0  0
   12.7750    5.4205    9.3280 H   0  0  0  0  0  0  0  0  0  0  0  0
   12.7750    5.4205    9.3280 H   0  0  0  0  0  0  0  0  0  0  0  0
  1  3  2  0
  1  4  1  0
  1  5  1  0
  2  4  1  0
  2  6  1  0
  4  9  1  0
  4 15  1  0
  5  6  1  0
  5  8  1  0
  6  7  2  3
  9 10  2  0
  9 14  1  0
 10 11  1  0
 11 12  2  0
 12 13  1  0
 13 14  2  0
 15 16  2  0
 15 20  1  0
 16 17  1  0
 17 18  2  0
 18 19  1  0
 19 20  2  0
  2 21  1  0
  7 22  1  0
  8 23  1  0
  8 24  1  0
  8 25  1  0
 10 26  1  0
 11 27  1  0
 12 28  1  0
 13 29  1  0
 14 30  1  0
 16 31  1  0
 17 32  1  0
 19 33  1  0
 20 34  1  0
 35 36  1  0
 36 37  1  0
 36 38  1  0
 38 43  1  0
 38 39  2  0
 39 40  1  0
 40 41  2  0
 41 42  1  0
 42 43  2  0
 35 44  1  0
 35 45  1  0
 37 46  1  0
 37 47  1  0
 37 48  1  0
 39 49  1  0
 40 50  1  0
 41 51  1  0
 42 52  1  0
 43 53  1  0
 18 35  1  0
M  END
>  <attachment_point>  (507) 
32

>  <score>  (507) 
<NA>

$$$$
4djw
     RDKit          3D

 45 48  0  0  0  0  0  0  0  0999 V2000
   22.4950   11.8750   22.5810 C   0  0  0  0  0  0  0  0  0  0  0  0
   22.5380    9.4930   22.4640 N   0  0  0  0  0  0  0  0  0  0  0  0
   22.3600   13.0630   22.3480 O   0  0  0  0  0  0  0  0  0  0  0  0
   22.3390   10.6680   21.5610 C   0  0  0  0  0  0  0  0  0  0  0  0
   22.7860   11.3350   23.8120 N   0  0  0  0  0  0  0  0  0  0  0  0
   22.7800    9.9140   23.7010 C   0  0  0  0  0  0  0  0  0  0  0  0
   22.9970    9.1110   24.7490 N   0  0  0  0  0  0  0  0  0  0  0  0
   23.0220   12.1410   25.0180 C   0  0  0  0  0  0  0  0  0  0  0  0
   20.9020   10.6270   21.0050 C   0  0  0  0  0  0  0  0  0  0  0  0
   20.2720    9.4140   20.7470 C   0  0  0  0  0  0  0  0  0  0  0  0
   18.9690    9.3760   20.2600 C   0  0  0  0  0  0  0  0  0  0  0  0
   18.2800   10.5440   20.0210 C   0  0  0  0  0  0  0  0  0  0  0  0
   18.8920   11.7530   20.2590 C   0  0  0  0  0  0  0  0  0  0  0  0
   20.1950   11.7970   20.7440 C   0  0  0  0  0  0  0  0  0  0  0  0
   23.4880   10.6920   20.5300 C   0  0  0  0  0  0  0  0  0  0  0  0
   23.2110   10.7890   19.1730 C   0  0  0  0  0  0  0  0  0  0  0  0
   24.2350   10.8650   18.2430 C   0  0  0  0  0  0  0  0  0  0  0  0
   25.5500   10.8410   18.6560 C   0  0  0  0  0  0  0  0  0  0  0  0
   25.8710   10.7460   20.0070 C   0  0  0  0  0  0  0  0  0  0  0  0
   24.8260   10.6610   20.9430 C   0  0  0  0  0  0  0  0  0  0  0  0
    0.0000    0.0000    0.0000 H   0  0  0  0  0  0  0  0  0  0  0  0
    0.0000    0.0000    0.0000 H   0  0  0  0  0  0  0  0  0  0  0  0
    0.0000    0.0000    0.0000 H   0  0  0  0  0  0  0  0  0  0  0  0
    0.0000    0.0000    0.0000 H   0  0  0  0  0  0  0  0  0  0  0  0
    0.0000    0.0000    0.0000 H   0  0  0  0  0  0  0  0  0  0  0  0
    0.0000    0.0000    0.0000 H   0  0  0  0  0  0  0  0  0  0  0  0
    0.0000    0.0000    0.0000 H   0  0  0  0  0  0  0  0  0  0  0  0
    0.0000    0.0000    0.0000 H   0  0  0  0  0  0  0  0  0  0  0  0
    0.0000    0.0000    0.0000 H   0  0  0  0  0  0  0  0  0  0  0  0
    0.0000    0.0000    0.0000 H   0  0  0  0  0  0  0  0  0  0  0  0
    0.0000    0.0000    0.0000 H   0  0  0  0  0  0  0  0  0  0  0  0
    0.0000    0.0000    0.0000 H   0  0  0  0  0  0  0  0  0  0  0  0
    0.0000    0.0000    0.0000 H   0  0  0  0  0  0  0  0  0  0  0  0
    0.0000    0.0000    0.0000 H   0  0  0  0  0  0  0  0  0  0  0  0
    9.0772    3.8515    6.6280 H   0  0  0  0  0  0  0  0  0  0  0  0
   12.7685    3.0008    9.0311 H   0  0  0  0  0  0  0  0  0  0  0  0
   11.3223    7.2210    8.5594 H   0  0  0  0  0  0  0  0  0  0  0  0
    9.3435    6.3814    7.1145 H   0  0  0  0  0  0  0  0  0  0  0  0
   10.7897    2.1612    7.5863 H   0  0  0  0  0  0  0  0  0  0  0  0
   12.2020    5.1774    8.9096 C   0  0  0  0  0  0  0  0  0  0  0  0
   12.0478    3.7122    8.6278 C   0  0  0  0  0  0  0  0  0  0  0  0
   10.9017    3.2259    7.7910 C   0  0  0  0  0  0  0  0  0  0  0  0
    9.9100    4.2049    7.2360 C   0  0  0  0  0  0  0  0  0  0  0  0
   10.0642    5.6700    7.5178 C   0  0  0  0  0  0  0  0  0  0  0  0
   11.2102    6.1563    8.3546 C   0  0  0  0  0  0  0  0  0  0  0  0
  1  3  2  0
  1  4  1  0
  1  5  1  0
  2  4  1  0
  2  6  1  0
  4  9  1  0
  4 15  1  0
  5  6  1  0
  5  8  1  0
  6  7  2  3
  9 10  2  0
  9 14  1  0
 10 11  1  0
 11 12  2  0
 12 13  1  0
 13 14  2  0
 15 16  2  0
 15 20  1  0
 16 17  1  0
 17 18  2  0
 18 19  1  0
 19 20  2  0
  2 21  1  0
  7 22  1  0
  8 23  1  0
  8 24  1  0
  8 25  1  0
 10 26  1  0
 11 27  1  0
 12 28  1  0
 13 29  1  0
 14 30  1  0
 16 31  1  0
 17 32  1  0
 19 33  1  0
 20 34  1  0
 40 41  2  0
 36 41  1  0
 41 42  1  0
 39 42  1  0
 42 43  2  0
 35 43  1  0
 43 44  1  0
 38 44  1  0
 44 45  2  0
 37 45  1  0
 40 45  1  0
 18 40  1  0
M  END
>  <attachment_point>  (508) 
32

>  <score>  (508) 
<NA>

$$$$
