2gmx
  PyMOL3.0          3D                             0

 24 25  0  0  0  0  0  0  0  0999 V2000
    0.6680  149.6310   52.1780 C   0  0  0  0  0  0  0  0  0  0  0  0
    3.0090  140.6200   56.4870 N   0  0  0  0  0  0  0  0  0  0  0  0
    1.9620  149.2640   52.6280 C   0  0  0  0  0  0  0  0  0  0  0  0
    2.4660  149.8330   53.8590 C   0  0  0  0  0  0  0  0  0  0  0  0
    1.6570  150.7410   54.6000 C   0  0  0  0  0  0  0  0  0  0  0  0
    0.3580  151.1130   54.1650 C   0  0  0  0  0  0  0  0  0  0  0  0
   -0.1340  150.5380   52.9220 C   0  0  0  0  0  0  0  0  0  0  0  0
    3.8340  149.4930   54.3900 C   0  0  0  0  0  0  0  0  0  0  0  0
    3.7760  148.3010   55.3550 C   0  0  0  0  0  0  0  0  0  0  0  0
    3.6080  147.1180   54.7070 N   0  0  0  0  0  0  0  0  0  0  0  0
    3.5230  145.8440   55.1920 C   0  0  0  0  0  0  0  0  0  0  0  0
    3.8880  148.4710   56.5680 O   0  0  0  0  0  0  0  0  0  0  0  0
    3.0190  144.9720   54.2890 N   0  0  0  0  0  0  0  0  0  0  0  0
    2.8790  143.6460   54.6100 C   0  0  0  0  0  0  0  0  0  0  0  0
    3.2540  143.1490   55.8980 C   0  0  0  0  0  0  0  0  0  0  0  0
    3.7840  144.0620   56.8580 C   0  0  0  0  0  0  0  0  0  0  0  0
    3.9180  145.4220   56.4980 C   0  0  0  0  0  0  0  0  0  0  0  0
   -0.4210  152.0200   54.9250 O   0  0  0  0  0  0  0  0  0  0  0  0
   -1.4550  151.4120   55.7020 C   0  0  0  0  0  0  0  0  0  0  0  0
    2.7960  148.3740   51.9370 O   0  0  0  0  0  0  0  0  0  0  0  0
    2.1840  147.2640   51.2740 C   0  0  0  0  0  0  0  0  0  0  0  0
    4.1700  143.6740   58.1190 N   0  0  0  0  0  0  0  0  0  0  0  0
    3.1040  141.7440   56.2230 C   0  0  0  0  0  0  0  0  0  0  0  0
   -1.8550  150.9620   52.2300 Br  0  0  0  0  0  0  0  0  0  0  0  0
  1  3  2  0  0  0  0
  1  7  1  0  0  0  0
  2 23  3  0  0  0  0
  3  4  1  0  0  0  0
  3 20  1  0  0  0  0
  4  5  2  0  0  0  0
  4  8  1  0  0  0  0
  5  6  1  0  0  0  0
  6  7  2  0  0  0  0
  6 18  1  0  0  0  0
  7 24  1  0  0  0  0
  8  9  1  0  0  0  0
  9 10  1  0  0  0  0
  9 12  2  0  0  0  0
 10 11  1  0  0  0  0
 11 13  1  0  0  0  0
 11 17  2  0  0  0  0
 13 14  2  0  0  0  0
 14 15  1  0  0  0  0
 15 16  2  0  0  0  0
 15 23  1  0  0  0  0
 16 17  1  0  0  0  0
 16 22  1  0  0  0  0
 18 19  1  0  0  0  0
 20 21  1  0  0  0  0
M  END
$$$$
