sarscov2/lig.pdb
  PyMOL3.0          3D                             0

 32 34  0  0  0  0  0  0  0  0999 V2000
    6.0620   -0.3700   25.9140 C   0  0  0  0  0  0  0  0  0  0  0  0
    6.7750    0.1070   24.8270 C   0  0  0  0  0  0  0  0  0  0  0  0
    8.2370   -0.2760   22.8140 C   0  0  0  0  0  0  0  0  0  0  0  0
    7.4080   -2.1460   24.2970 C   0  0  0  0  0  0  0  0  0  0  0  0
    9.0630    0.8500   22.8750 C   0  0  0  0  0  0  0  0  0  0  0  0
   10.6900    2.5310   21.8360 C   0  0  0  0  0  0  0  0  0  0  0  0
    9.7730    1.3130   21.7120 C   0  0  0  0  0  0  0  0  0  0  0  0
   10.7600    3.5690   20.9020 C   0  0  0  0  0  0  0  0  0  0  0  0
   11.6370    4.6220   21.1050 C   0  0  0  0  0  0  0  0  0  0  0  0
   12.4450    4.6580   22.2200 C   0  0  0  0  0  0  0  0  0  0  0  0
   12.3890    3.6490   23.1500 C   0  0  0  0  0  0  0  0  0  0  0  0
   11.5190    2.5890   22.9640 C   0  0  0  0  0  0  0  0  0  0  0  0
    9.9070    3.6020   19.6330 C   0  0  0  0  0  0  0  0  0  0  0  0
    6.0200   -1.7220   26.1980 C   0  0  0  0  0  0  0  0  0  0  0  0
    7.4570   -0.7880   24.0210 C   0  0  0  0  0  0  0  0  0  0  0  0
    6.6920   -2.6130   25.3850 C   0  0  0  0  0  0  0  0  0  0  0  0
    8.1210   -0.9780   21.5220 C   0  0  0  0  0  0  0  0  0  0  0  0
    9.6660    0.6150   20.4680 C   0  0  0  0  0  0  0  0  0  0  0  0
    8.8160   -0.5340   20.4000 N   0  0  0  0  0  0  0  0  0  0  0  0
    9.2840    3.6380   18.6900 N   0  0  0  0  0  0  0  0  0  0  0  0
    7.3200   -2.1020   21.4270 O   0  0  0  0  0  0  0  0  0  0  0  0
    5.2000    0.7750   26.9680 Cl  0  0  0  0  0  0  0  0  0  0  0  0
    6.7976    1.1178   24.6203 H   0  0  0  0  0  0  0  0  0  0  0  0
    7.9082   -2.8119   23.6877 H   0  0  0  0  0  0  0  0  0  0  0  0
    9.1653    1.3572   23.7679 H   0  0  0  0  0  0  0  0  0  0  0  0
   11.6854    5.3870   20.4140 H   0  0  0  0  0  0  0  0  0  0  0  0
   13.0957    5.4472   22.3572 H   0  0  0  0  0  0  0  0  0  0  0  0
   12.9941    3.6812   23.9854 H   0  0  0  0  0  0  0  0  0  0  0  0
   11.4804    1.8322   23.6645 H   0  0  0  0  0  0  0  0  0  0  0  0
    5.4888   -2.0640   27.0140 H   0  0  0  0  0  0  0  0  0  0  0  0
    6.6603   -3.6243   25.5882 H   0  0  0  0  0  0  0  0  0  0  0  0
   10.1903    0.9331   19.6379 H   0  0  0  0  0  0  0  0  0  0  0  0
  1 14  1  0  0  0  0
  1 22  1  0  0  0  0
  1  2  2  0  0  0  0
  2 23  1  0  0  0  0
  3  5  2  0  0  0  0
  3 15  1  0  0  0  0
  4 16  1  0  0  0  0
  4 24  1  0  0  0  0
  5 25  1  0  0  0  0
  6 12  1  0  0  0  0
  5  7  1  0  0  0  0
  6  7  1  0  0  0  0
  6  8  2  0  0  0  0
  8  9  1  0  0  0  0
  9 10  2  0  0  0  0
  9 26  1  0  0  0  0
 10 11  1  0  0  0  0
 10 27  1  0  0  0  0
 11 28  1  0  0  0  0
 11 12  2  0  0  0  0
 12 29  1  0  0  0  0
  8 13  1  0  0  0  0
 14 30  1  0  0  0  0
  2 15  1  0  0  0  0
  4 15  2  0  0  0  0
 14 16  2  0  0  0  0
 16 31  1  0  0  0  0
  3 17  1  0  0  0  0
  7 18  2  0  0  0  0
 18 32  1  0  0  0  0
 17 19  1  0  0  0  0
 18 19  1  0  0  0  0
 13 20  3  0  0  0  0
 17 21  2  0  0  0  0
M  END
$$$$
