sarscov2/lig.pdb
 OpenBabel06182409313D

 42 45  0  0  0  0  0  0  0  0999 V2000
    6.0620   -0.3700   25.9140 C   0  0  0  0  0  0  0  0  0  0  0  0
    6.7750    0.1070   24.8270 C   0  0  0  0  0  0  0  0  0  0  0  0
    8.2370   -0.2760   22.8140 C   0  0  0  0  0  0  0  0  0  0  0  0
    7.4080   -2.1460   24.2970 C   0  0  0  0  0  0  0  0  0  0  0  0
    9.0630    0.8500   22.8750 C   0  0  0  0  0  0  0  0  0  0  0  0
    8.6680   -1.2510   19.1490 C   0  0  0  0  0  0  0  0  0  0  0  0
   10.6900    2.5310   21.8360 C   0  0  0  0  0  0  0  0  0  0  0  0
    9.7410   -1.8770   18.5760 C   0  0  0  0  0  0  0  0  0  0  0  0
    9.6060   -2.5440   17.4050 C   0  0  0  0  0  0  0  0  0  0  0  0
    8.3810   -2.5780   16.7880 C   0  0  0  0  0  0  0  0  0  0  0  0
    7.4240   -1.3050   18.4990 C   0  0  0  0  0  0  0  0  0  0  0  0
    9.7730    1.3130   21.7120 C   0  0  0  0  0  0  0  0  0  0  0  0
   10.7600    3.5690   20.9020 C   0  0  0  0  0  0  0  0  0  0  0  0
   11.6370    4.6220   21.1050 C   0  0  0  0  0  0  0  0  0  0  0  0
   12.4450    4.6580   22.2200 C   0  0  0  0  0  0  0  0  0  0  0  0
   12.3890    3.6490   23.1500 C   0  0  0  0  0  0  0  0  0  0  0  0
   11.5190    2.5890   22.9640 C   0  0  0  0  0  0  0  0  0  0  0  0
    9.9070    3.6020   19.6330 C   0  0  0  0  0  0  0  0  0  0  0  0
    6.0200   -1.7220   26.1980 C   0  0  0  0  0  0  0  0  0  0  0  0
    7.4570   -0.7880   24.0210 C   0  0  0  0  0  0  0  0  0  0  0  0
    6.6920   -2.6130   25.3850 C   0  0  0  0  0  0  0  0  0  0  0  0
    8.1210   -0.9780   21.5220 C   0  0  0  0  0  0  0  0  0  0  0  0
    9.6660    0.6150   20.4680 C   0  0  0  0  0  0  0  0  0  0  0  0
    8.8160   -0.5340   20.4000 N   0  0  0  0  0  0  0  0  0  0  0  0
    7.3220   -1.9710   17.3390 N   0  0  0  0  0  0  0  0  0  0  0  0
    9.2840    3.6380   18.6900 N   0  0  0  0  0  0  0  0  0  0  0  0
    7.3200   -2.1020   21.4270 O   0  0  0  0  0  0  0  0  0  0  0  0
    5.2000    0.7750   26.9680 Cl  0  0  0  0  0  0  0  0  0  0  0  0
    6.7976    1.1178   24.6203 H   0  0  0  0  0  0  0  0  0  0  0  0
    7.9082   -2.8119   23.6877 H   0  0  0  0  0  0  0  0  0  0  0  0
    9.1653    1.3572   23.7679 H   0  0  0  0  0  0  0  0  0  0  0  0
   10.6619   -1.8407   19.0404 H   0  0  0  0  0  0  0  0  0  0  0  0
   10.4165   -3.0219   16.9810 H   0  0  0  0  0  0  0  0  0  0  0  0
    8.2746   -3.0762   15.8905 H   0  0  0  0  0  0  0  0  0  0  0  0
    6.5995   -0.8385   18.9084 H   0  0  0  0  0  0  0  0  0  0  0  0
   11.6854    5.3870   20.4140 H   0  0  0  0  0  0  0  0  0  0  0  0
   13.0957    5.4472   22.3572 H   0  0  0  0  0  0  0  0  0  0  0  0
   12.9941    3.6812   23.9854 H   0  0  0  0  0  0  0  0  0  0  0  0
   11.4804    1.8322   23.6645 H   0  0  0  0  0  0  0  0  0  0  0  0
    5.4888   -2.0640   27.0140 H   0  0  0  0  0  0  0  0  0  0  0  0
    6.6603   -3.6243   25.5882 H   0  0  0  0  0  0  0  0  0  0  0  0
   10.1903    0.9331   19.6379 H   0  0  0  0  0  0  0  0  0  0  0  0
  1 19  1  0  0  0  0
  1 28  1  0  0  0  0
  2  1  2  0  0  0  0
  2 29  1  0  0  0  0
  3  5  2  0  0  0  0
  3 20  1  0  0  0  0
  4 21  1  0  0  0  0
  4 30  1  0  0  0  0
  5 31  1  0  0  0  0
  6 24  1  0  0  0  0
  7 17  1  0  0  0  0
  8  6  1  0  0  0  0
  8 32  1  0  0  0  0
  9  8  2  0  0  0  0
  9 33  1  0  0  0  0
 10 25  2  0  0  0  0
 10  9  1  0  0  0  0
 10 34  1  0  0  0  0
 11  6  2  0  0  0  0
 11 35  1  0  0  0  0
 12  7  1  0  0  0  0
 12  5  1  0  0  0  0
 13 14  1  0  0  0  0
 13  7  2  0  0  0  0
 14 15  2  0  0  0  0
 14 36  1  0  0  0  0
 15 16  1  0  0  0  0
 15 37  1  0  0  0  0
 16 38  1  0  0  0  0
 17 16  2  0  0  0  0
 17 39  1  0  0  0  0
 18 13  1  0  0  0  0
 19 40  1  0  0  0  0
 20  4  2  0  0  0  0
 20  2  1  0  0  0  0
 21 19  2  0  0  0  0
 21 41  1  0  0  0  0
 22  3  1  0  0  0  0
 23 12  2  0  0  0  0
 23 42  1  0  0  0  0
 24 23  1  0  0  0  0
 24 22  1  0  0  0  0
 25 11  1  0  0  0  0
 26 18  3  0  0  0  0
 27 22  2  0  0  0  0
M  END
>  <REMARK>
 Selection 'resname XEY'

$$$$
