
     RDKit          3D

 42 44  0  0  0  0  0  0  0  0999 V2000
   23.2944    9.4243   25.4258 H   0  0  0  0  0  0  0  0  0  0  0  0
   22.9666    9.1373   24.5118 N   0  0  0  0  0  0  0  0  0  0  0  0
   22.6831   10.0714   23.7040 C   0  0  0  0  0  0  0  0  0  0  0  0
   22.8252   11.4138   23.9127 N   0  0  0  0  0  0  0  0  0  0  0  0
   23.0721   12.0532   25.1877 C   0  0  0  0  0  0  0  0  0  0  0  0
   23.9956   11.6740   25.6294 H   0  0  0  0  0  0  0  0  0  0  0  0
   23.1656   13.1324   25.0443 H   0  0  0  0  0  0  0  0  0  0  0  0
   22.2451   11.8695   25.8805 H   0  0  0  0  0  0  0  0  0  0  0  0
   22.6405   12.0360   22.7085 C   0  0  0  0  0  0  0  0  0  0  0  0
   22.7084   13.2571   22.5515 O   0  0  0  0  0  0  0  0  0  0  0  0
   22.3177   10.9491   21.6504 C   0  0  2  0  0  0  0  0  0  0  0  0
   23.4260   10.8353   20.6114 C   0  0  0  0  0  0  0  0  0  0  0  0
   23.1557   10.9477   19.2340 C   0  0  0  0  0  0  0  0  0  0  0  0
   22.1338   11.0288   18.8819 H   0  0  0  0  0  0  0  0  0  0  0  0
   24.1884   10.9581   18.2957 C   0  0  0  0  0  0  0  0  0  0  0  0
   23.9616   11.0291   17.2355 H   0  0  0  0  0  0  0  0  0  0  0  0
   25.5118   10.9109   18.7311 C   0  0  0  0  0  0  0  0  0  0  0  0
   26.3212   10.9735   18.0116 H   0  0  0  0  0  0  0  0  0  0  0  0
   25.8056   10.7803   20.0922 C   0  0  0  0  0  0  0  0  0  0  0  0
   27.1947   10.8164   20.5381 C   0  0  0  0  0  0  0  0  0  0  0  0
   27.7404    9.7942   21.3264 C   0  0  0  0  0  0  0  0  0  0  0  0
   27.1130    8.9495   21.5856 H   0  0  0  0  0  0  0  0  0  0  0  0
   29.0196    9.7996   21.7462 N   0  0  0  0  0  0  0  0  0  0  0  0
   29.7907   10.8455   21.4141 C   0  0  0  0  0  0  0  0  0  0  0  0
   30.8167   10.8740   21.7622 H   0  0  0  0  0  0  0  0  0  0  0  0
   29.3179   11.9107   20.6446 C   0  0  0  0  0  0  0  0  0  0  0  0
   29.9732   12.7402   20.4112 H   0  0  0  0  0  0  0  0  0  0  0  0
   28.0052   11.8954   20.1859 C   0  0  0  0  0  0  0  0  0  0  0  0
   27.6086   12.7114   19.5871 H   0  0  0  0  0  0  0  0  0  0  0  0
   24.7586   10.6869   21.0170 C   0  0  0  0  0  0  0  0  0  0  0  0
   24.9848   10.5461   22.0681 H   0  0  0  0  0  0  0  0  0  0  0  0
   20.9494   11.1927   21.0123 C   0  0  0  0  0  0  0  0  0  0  0  0
   20.0113   11.6068   21.9257 F   0  0  0  0  0  0  0  0  0  0  0  0
   21.0307   12.2080   20.0988 F   0  0  0  0  0  0  0  0  0  0  0  0
   20.6363    9.4775   20.2500 P   0  0  0  0  0  0  0  0  0  0  0  0
   19.6160    9.5370   19.1750 O   0  0  0  0  0  0  0  0  0  0  0  0
   21.9667    8.7830   19.7398 O   0  0  0  0  0  0  0  0  0  0  0  0
   21.6746    7.8599   19.7302 H   0  0  0  0  0  0  0  0  0  0  0  0
   20.2259    8.2999   21.2098 O   0  0  0  0  0  0  0  0  0  0  0  0
   20.3416    7.5203   20.6472 H   0  0  0  0  0  0  0  0  0  0  0  0
   22.2416    9.7271   22.4779 N   0  0  0  0  0  0  0  0  0  0  0  0
   22.5573    8.8021   22.1793 H   0  0  0  0  0  0  0  0  0  0  0  0
  1  2  1  0
  2  3  2  3
  3  4  1  0
  4  5  1  0
  5  6  1  0
  5  7  1  0
  5  8  1  0
  4  9  1  0
  9 10  2  0
  9 11  1  0
 11 12  1  0
 12 13  2  0
 13 14  1  0
 13 15  1  0
 15 16  1  0
 15 17  2  0
 17 18  1  0
 17 19  1  0
 19 20  1  0
 20 21  2  0
 21 22  1  0
 21 23  1  0
 23 24  2  0
 24 25  1  0
 24 26  1  0
 26 27  1  0
 26 28  2  0
 28 29  1  0
 19 30  2  0
 30 31  1  0
 11 32  1  6
 32 33  1  0
 32 34  1  0
 32 35  1  0
 35 36  2  0
 35 37  1  0
 37 38  1  0
 35 39  1  0
 39 40  1  0
 11 41  1  0
 41 42  1  0
 41  3  1  0
 30 12  1  0
 28 20  1  0
M  END
>  <score>  (1) 
5.99459

$$$$

     RDKit          3D

 34 36  0  0  0  0  0  0  0  0999 V2000
   22.9571    8.1723   24.4505 H   0  0  0  0  0  0  0  0  0  0  0  0
   22.9919    9.1547   24.7038 N   0  0  0  0  0  0  0  0  0  0  0  0
   22.7917    9.9609   23.7522 C   0  0  0  0  0  0  0  0  0  0  0  0
   22.8005   11.3158   23.8305 N   0  0  0  0  0  0  0  0  0  0  0  0
   23.0214   12.1111   25.0261 C   0  0  0  0  0  0  0  0  0  0  0  0
   23.5371   11.5270   25.7947 H   0  0  0  0  0  0  0  0  0  0  0  0
   22.0712   12.4681   25.4305 H   0  0  0  0  0  0  0  0  0  0  0  0
   23.6376   12.9781   24.7800 H   0  0  0  0  0  0  0  0  0  0  0  0
   22.5222   11.7882   22.5766 C   0  0  0  0  0  0  0  0  0  0  0  0
   22.3935   12.9893   22.3652 O   0  0  0  0  0  0  0  0  0  0  0  0
   22.3605   10.6304   21.5696 C   0  0  1  0  0  0  0  0  0  0  0  0
   20.3214   10.6009   20.7784 I   0  0  0  0  0  0  0  0  0  0  0  0
   23.4800   10.6826   20.5322 C   0  0  0  0  0  0  0  0  0  0  0  0
   23.2020   10.7960   19.1614 C   0  0  0  0  0  0  0  0  0  0  0  0
   22.1677   10.8248   18.8254 H   0  0  0  0  0  0  0  0  0  0  0  0
   24.2405   10.8690   18.2257 C   0  0  0  0  0  0  0  0  0  0  0  0
   24.0064   10.9407   17.1663 H   0  0  0  0  0  0  0  0  0  0  0  0
   25.5764   10.8578   18.6516 C   0  0  0  0  0  0  0  0  0  0  0  0
   26.3784   10.9224   17.9212 H   0  0  0  0  0  0  0  0  0  0  0  0
   25.8849   10.7633   20.0182 C   0  0  0  0  0  0  0  0  0  0  0  0
   27.2845   10.8198   20.4815 C   0  0  0  0  0  0  0  0  0  0  0  0
   27.8528    9.7710   21.2359 C   0  0  0  0  0  0  0  0  0  0  0  0
   27.2591    8.8796   21.4404 H   0  0  0  0  0  0  0  0  0  0  0  0
   29.1218    9.8085   21.6978 N   0  0  0  0  0  0  0  0  0  0  0  0
   29.8667   10.8988   21.4504 C   0  0  0  0  0  0  0  0  0  0  0  0
   30.8785   10.9537   21.8509 H   0  0  0  0  0  0  0  0  0  0  0  0
   29.3742   11.9737   20.7005 C   0  0  0  0  0  0  0  0  0  0  0  0
   30.0119   12.8323   20.5318 H   0  0  0  0  0  0  0  0  0  0  0  0
   28.0721   11.9410   20.1921 C   0  0  0  0  0  0  0  0  0  0  0  0
   27.6652   12.7782   19.6158 H   0  0  0  0  0  0  0  0  0  0  0  0
   24.8328   10.6639   20.9454 C   0  0  0  0  0  0  0  0  0  0  0  0
   25.0762   10.5937   22.0045 H   0  0  0  0  0  0  0  0  0  0  0  0
   22.5354    9.5052   22.5002 N   0  0  0  0  0  0  0  0  0  0  0  0
   22.4743    8.5165   22.2802 H   0  0  0  0  0  0  0  0  0  0  0  0
  1  2  1  0
  2  3  2  3
  3  4  1  0
  4  5  1  0
  5  6  1  0
  5  7  1  0
  5  8  1  0
  4  9  1  0
  9 10  2  0
  9 11  1  0
 11 12  1  6
 11 13  1  0
 13 14  2  0
 14 15  1  0
 14 16  1  0
 16 17  1  0
 16 18  2  0
 18 19  1  0
 18 20  1  0
 20 21  1  0
 21 22  2  0
 22 23  1  0
 22 24  1  0
 24 25  2  0
 25 26  1  0
 25 27  1  0
 27 28  1  0
 27 29  2  0
 29 30  1  0
 20 31  2  0
 31 32  1  0
 11 33  1  0
 33 34  1  0
 33  3  1  0
 31 13  1  0
 29 21  1  0
M  END
>  <score>  (2) 
6.43602

$$$$

     RDKit          3D

 44 47  0  0  0  0  0  0  0  0999 V2000
   23.2011    9.4941   25.6911 H   0  0  0  0  0  0  0  0  0  0  0  0
   23.1054    9.1462   24.7410 N   0  0  0  0  0  0  0  0  0  0  0  0
   22.9316    9.9891   23.8021 C   0  0  0  0  0  0  0  0  0  0  0  0
   22.7949   11.3561   23.8915 N   0  0  0  0  0  0  0  0  0  0  0  0
   23.0256   12.1346   25.1022 C   0  0  0  0  0  0  0  0  0  0  0  0
   23.9602   11.7974   25.5642 H   0  0  0  0  0  0  0  0  0  0  0  0
   22.2021   11.9786   25.8094 H   0  0  0  0  0  0  0  0  0  0  0  0
   23.1109   13.2118   24.8979 H   0  0  0  0  0  0  0  0  0  0  0  0
   22.5777   11.8202   22.6096 C   0  0  0  0  0  0  0  0  0  0  0  0
   22.4495   13.0151   22.3253 O   0  0  0  0  0  0  0  0  0  0  0  0
   22.5237   10.6233   21.6235 C   0  0  1  0  0  0  0  0  0  0  0  0
   21.1325   10.4695   21.0476 C   0  0  0  0  0  0  0  0  0  0  0  0
   20.4316   11.5563   20.4949 C   0  0  0  0  0  0  0  0  0  0  0  0
   20.9023   12.5378   20.4349 H   0  0  0  0  0  0  0  0  0  0  0  0
   19.1272   11.3554   20.0098 C   0  0  0  0  0  0  0  0  0  0  0  0
   18.5438   12.1719   19.6074 H   0  0  0  0  0  0  0  0  0  0  0  0
   18.5470   10.0790   20.0540 C   0  0  0  0  0  0  0  0  0  0  0  0
   16.8062    9.6874   19.4097 Br  0  0  0  0  0  0  0  0  0  0  0  0
   19.2546    9.0177   20.5944 C   0  0  0  0  0  0  0  0  0  0  0  0
   18.8338    8.0230   20.6695 H   0  0  0  0  0  0  0  0  0  0  0  0
   20.5366    9.2134   21.0591 C   0  0  0  0  0  0  0  0  0  0  0  0
   21.0965    8.3840   21.4465 H   0  0  0  0  0  0  0  0  0  0  0  0
   23.5815   10.6998   20.5433 C   0  0  0  0  0  0  0  0  0  0  0  0
   23.2725   10.7962   19.1738 C   0  0  0  0  0  0  0  0  0  0  0  0
   22.2375   10.8046   18.8461 H   0  0  0  0  0  0  0  0  0  0  0  0
   24.2931   10.8808   18.2223 C   0  0  0  0  0  0  0  0  0  0  0  0
   24.0537   10.9433   17.1661 H   0  0  0  0  0  0  0  0  0  0  0  0
   25.6277   10.8983   18.6347 C   0  0  0  0  0  0  0  0  0  0  0  0
   26.4276   10.9918   17.9101 H   0  0  0  0  0  0  0  0  0  0  0  0
   25.9419   10.7819   19.9904 C   0  0  0  0  0  0  0  0  0  0  0  0
   27.3085   10.8288   20.4574 C   0  0  0  0  0  0  0  0  0  0  0  0
   27.8225    9.7993   21.2579 C   0  0  0  0  0  0  0  0  0  0  0  0
   27.1790    8.9570   21.4998 H   0  0  0  0  0  0  0  0  0  0  0  0
   29.0833    9.8173   21.7266 N   0  0  0  0  0  0  0  0  0  0  0  0
   29.8550   10.8764   21.4337 C   0  0  0  0  0  0  0  0  0  0  0  0
   30.8723   10.8995   21.8094 H   0  0  0  0  0  0  0  0  0  0  0  0
   29.3935   11.9534   20.6678 C   0  0  0  0  0  0  0  0  0  0  0  0
   30.0404   12.7999   20.4792 H   0  0  0  0  0  0  0  0  0  0  0  0
   28.0993   11.9331   20.1617 C   0  0  0  0  0  0  0  0  0  0  0  0
   27.6969   12.7583   19.5762 H   0  0  0  0  0  0  0  0  0  0  0  0
   24.9252   10.6654   20.9292 C   0  0  0  0  0  0  0  0  0  0  0  0
   25.1714   10.5682   21.9839 H   0  0  0  0  0  0  0  0  0  0  0  0
   22.8835    9.5139   22.5333 N   0  0  0  0  0  0  0  0  0  0  0  0
   22.5671    8.5518   22.4040 H   0  0  0  0  0  0  0  0  0  0  0  0
  1  2  1  0
  2  3  2  3
  3  4  1  0
  4  5  1  0
  5  6  1  0
  5  7  1  0
  5  8  1  0
  4  9  1  0
  9 10  2  0
  9 11  1  0
 11 12  1  6
 12 13  2  0
 13 14  1  0
 13 15  1  0
 15 16  1  0
 15 17  2  0
 17 18  1  0
 17 19  1  0
 19 20  1  0
 19 21  2  0
 21 22  1  0
 11 23  1  0
 23 24  2  0
 24 25  1  0
 24 26  1  0
 26 27  1  0
 26 28  2  0
 28 29  1  0
 28 30  1  0
 30 31  1  0
 31 32  2  0
 32 33  1  0
 32 34  1  0
 34 35  2  0
 35 36  1  0
 35 37  1  0
 37 38  1  0
 37 39  2  0
 39 40  1  0
 30 41  2  0
 41 42  1  0
 11 43  1  0
 43 44  1  0
 43  3  1  0
 21 12  1  0
 41 23  1  0
 39 31  1  0
M  END
>  <score>  (3) 
6.84415

$$$$
4djw
     RDKit          3D

 35 37  0  0  0  0  0  0  0  0999 V2000
   22.4950   11.8750   22.5810 C   0  0  0  0  0  0  0  0  0  0  0  0
   22.5380    9.4930   22.4640 N   0  0  0  0  0  0  0  0  0  0  0  0
   22.3600   13.0630   22.3480 O   0  0  0  0  0  0  0  0  0  0  0  0
   22.3390   10.6680   21.5610 C   0  0  2  0  0  0  0  0  0  0  0  0
   22.7860   11.3350   23.8120 N   0  0  0  0  0  0  0  0  0  0  0  0
   22.7800    9.9140   23.7010 C   0  0  0  0  0  0  0  0  0  0  0  0
   22.9970    9.1110   24.7490 N   0  0  0  0  0  0  0  0  0  0  0  0
   23.0220   12.1410   25.0180 C   0  0  0  0  0  0  0  0  0  0  0  0
   29.1260    9.8230   21.7090 N   0  0  0  0  0  0  0  0  0  0  0  0
   23.4880   10.6920   20.5300 C   0  0  0  0  0  0  0  0  0  0  0  0
   23.2110   10.7890   19.1730 C   0  0  0  0  0  0  0  0  0  0  0  0
   24.2350   10.8650   18.2430 C   0  0  0  0  0  0  0  0  0  0  0  0
   25.5500   10.8410   18.6560 C   0  0  0  0  0  0  0  0  0  0  0  0
   25.8710   10.7460   20.0070 C   0  0  0  0  0  0  0  0  0  0  0  0
   24.8260   10.6610   20.9430 C   0  0  0  0  0  0  0  0  0  0  0  0
   29.8540   10.9130   21.4510 C   0  0  0  0  0  0  0  0  0  0  0  0
   27.8830    9.7800   21.2080 C   0  0  0  0  0  0  0  0  0  0  0  0
   27.3000   10.8010   20.4650 C   0  0  0  0  0  0  0  0  0  0  0  0
   28.0930   11.9190   20.2200 C   0  0  0  0  0  0  0  0  0  0  0  0
   29.3850   11.9780   20.7130 C   0  0  0  0  0  0  0  0  0  0  0  0
    0.0000    0.0000    0.0000 H   0  0  0  0  0  0  0  0  0  0  0  0
    0.0000    0.0000    0.0000 H   0  0  0  0  0  0  0  0  0  0  0  0
    0.0000    0.0000    0.0000 H   0  0  0  0  0  0  0  0  0  0  0  0
    0.0000    0.0000    0.0000 H   0  0  0  0  0  0  0  0  0  0  0  0
    0.0000    0.0000    0.0000 H   0  0  0  0  0  0  0  0  0  0  0  0
    0.0000    0.0000    0.0000 H   0  0  0  0  0  0  0  0  0  0  0  0
    0.0000    0.0000    0.0000 H   0  0  0  0  0  0  0  0  0  0  0  0
    0.0000    0.0000    0.0000 H   0  0  0  0  0  0  0  0  0  0  0  0
    0.0000    0.0000    0.0000 H   0  0  0  0  0  0  0  0  0  0  0  0
    0.0000    0.0000    0.0000 H   0  0  0  0  0  0  0  0  0  0  0  0
    0.0000    0.0000    0.0000 H   0  0  0  0  0  0  0  0  0  0  0  0
    0.0000    0.0000    0.0000 H   0  0  0  0  0  0  0  0  0  0  0  0
    0.0000    0.0000    0.0000 H   0  0  0  0  0  0  0  0  0  0  0  0
   10.8694    5.1907   10.4909 O   0  0  0  0  0  0  0  0  0  0  0  0
   10.1979    5.9059   10.4847 H   0  0  0  0  0  0  0  0  0  0  0  0
  1  3  2  0
  1  4  1  0
  2  4  1  0
  1  5  1  0
  2  6  1  0
  5  6  1  0
  6  7  2  3
  5  8  1  0
  4 10  1  0
 10 11  2  0
 11 12  1  0
 12 13  2  0
 13 14  1  0
 10 15  1  0
 14 15  2  0
  9 16  2  0
  9 17  1  0
 14 18  1  0
 17 18  2  0
 18 19  1  0
 16 20  1  0
 19 20  2  0
  2 21  1  0
  7 22  1  0
  8 23  1  0
  8 24  1  0
  8 25  1  0
 11 26  1  0
 12 27  1  0
 13 28  1  0
 15 29  1  0
 16 30  1  0
 17 31  1  0
 19 32  1  0
 20 33  1  0
 34 35  1  0
  4 34  1  6
M  END
>  <attachment_point>  (4) 
21

>  <score>  (4) 
<NA>

$$$$
4djw
     RDKit          3D

 38 40  0  0  0  0  0  0  0  0999 V2000
   22.4950   11.8750   22.5810 C   0  0  0  0  0  0  0  0  0  0  0  0
   22.5380    9.4930   22.4640 N   0  0  0  0  0  0  0  0  0  0  0  0
   22.3600   13.0630   22.3480 O   0  0  0  0  0  0  0  0  0  0  0  0
   22.3390   10.6680   21.5610 C   0  0  2  0  0  0  0  0  0  0  0  0
   22.7860   11.3350   23.8120 N   0  0  0  0  0  0  0  0  0  0  0  0
   22.7800    9.9140   23.7010 C   0  0  0  0  0  0  0  0  0  0  0  0
   22.9970    9.1110   24.7490 N   0  0  0  0  0  0  0  0  0  0  0  0
   23.0220   12.1410   25.0180 C   0  0  0  0  0  0  0  0  0  0  0  0
   29.1260    9.8230   21.7090 N   0  0  0  0  0  0  0  0  0  0  0  0
   23.4880   10.6920   20.5300 C   0  0  0  0  0  0  0  0  0  0  0  0
   23.2110   10.7890   19.1730 C   0  0  0  0  0  0  0  0  0  0  0  0
   24.2350   10.8650   18.2430 C   0  0  0  0  0  0  0  0  0  0  0  0
   25.5500   10.8410   18.6560 C   0  0  0  0  0  0  0  0  0  0  0  0
   25.8710   10.7460   20.0070 C   0  0  0  0  0  0  0  0  0  0  0  0
   24.8260   10.6610   20.9430 C   0  0  0  0  0  0  0  0  0  0  0  0
   29.8540   10.9130   21.4510 C   0  0  0  0  0  0  0  0  0  0  0  0
   27.8830    9.7800   21.2080 C   0  0  0  0  0  0  0  0  0  0  0  0
   27.3000   10.8010   20.4650 C   0  0  0  0  0  0  0  0  0  0  0  0
   28.0930   11.9190   20.2200 C   0  0  0  0  0  0  0  0  0  0  0  0
   29.3850   11.9780   20.7130 C   0  0  0  0  0  0  0  0  0  0  0  0
    0.0000    0.0000    0.0000 H   0  0  0  0  0  0  0  0  0  0  0  0
    0.0000    0.0000    0.0000 H   0  0  0  0  0  0  0  0  0  0  0  0
    0.0000    0.0000    0.0000 H   0  0  0  0  0  0  0  0  0  0  0  0
    0.0000    0.0000    0.0000 H   0  0  0  0  0  0  0  0  0  0  0  0
    0.0000    0.0000    0.0000 H   0  0  0  0  0  0  0  0  0  0  0  0
    0.0000    0.0000    0.0000 H   0  0  0  0  0  0  0  0  0  0  0  0
    0.0000    0.0000    0.0000 H   0  0  0  0  0  0  0  0  0  0  0  0
    0.0000    0.0000    0.0000 H   0  0  0  0  0  0  0  0  0  0  0  0
    0.0000    0.0000    0.0000 H   0  0  0  0  0  0  0  0  0  0  0  0
    0.0000    0.0000    0.0000 H   0  0  0  0  0  0  0  0  0  0  0  0
    0.0000    0.0000    0.0000 H   0  0  0  0  0  0  0  0  0  0  0  0
    0.0000    0.0000    0.0000 H   0  0  0  0  0  0  0  0  0  0  0  0
    0.0000    0.0000    0.0000 H   0  0  0  0  0  0  0  0  0  0  0  0
   11.0304    5.2676   10.6462 O   0  0  0  0  0  0  0  0  0  0  0  0
    9.7848    5.0121   10.0465 C   0  0  0  0  0  0  0  0  0  0  0  0
    9.5572    5.9135    9.4467 H   0  0  0  0  0  0  0  0  0  0  0  0
    9.0124    4.8615   10.8202 H   0  0  0  0  0  0  0  0  0  0  0  0
    9.8841    4.1069    9.4303 H   0  0  0  0  0  0  0  0  0  0  0  0
  1  3  2  0
  1  4  1  0
  2  4  1  0
  1  5  1  0
  2  6  1  0
  5  6  1  0
  6  7  2  3
  5  8  1  0
  4 10  1  0
 10 11  2  0
 11 12  1  0
 12 13  2  0
 13 14  1  0
 10 15  1  0
 14 15  2  0
  9 16  2  0
  9 17  1  0
 14 18  1  0
 17 18  2  0
 18 19  1  0
 16 20  1  0
 19 20  2  0
  2 21  1  0
  7 22  1  0
  8 23  1  0
  8 24  1  0
  8 25  1  0
 11 26  1  0
 12 27  1  0
 13 28  1  0
 15 29  1  0
 16 30  1  0
 17 31  1  0
 19 32  1  0
 20 33  1  0
 34 35  1  0
 35 36  1  0
 35 37  1  0
 35 38  1  0
  4 34  1  6
M  END
>  <attachment_point>  (5) 
21

>  <score>  (5) 
<NA>

$$$$
4djw
     RDKit          3D

 36 38  0  0  0  0  0  0  0  0999 V2000
   22.4950   11.8750   22.5810 C   0  0  0  0  0  0  0  0  0  0  0  0
   22.5380    9.4930   22.4640 N   0  0  0  0  0  0  0  0  0  0  0  0
   22.3600   13.0630   22.3480 O   0  0  0  0  0  0  0  0  0  0  0  0
   22.3390   10.6680   21.5610 C   0  0  2  0  0  0  0  0  0  0  0  0
   22.7860   11.3350   23.8120 N   0  0  0  0  0  0  0  0  0  0  0  0
   22.7800    9.9140   23.7010 C   0  0  0  0  0  0  0  0  0  0  0  0
   22.9970    9.1110   24.7490 N   0  0  0  0  0  0  0  0  0  0  0  0
   23.0220   12.1410   25.0180 C   0  0  0  0  0  0  0  0  0  0  0  0
   29.1260    9.8230   21.7090 N   0  0  0  0  0  0  0  0  0  0  0  0
   23.4880   10.6920   20.5300 C   0  0  0  0  0  0  0  0  0  0  0  0
   23.2110   10.7890   19.1730 C   0  0  0  0  0  0  0  0  0  0  0  0
   24.2350   10.8650   18.2430 C   0  0  0  0  0  0  0  0  0  0  0  0
   25.5500   10.8410   18.6560 C   0  0  0  0  0  0  0  0  0  0  0  0
   25.8710   10.7460   20.0070 C   0  0  0  0  0  0  0  0  0  0  0  0
   24.8260   10.6610   20.9430 C   0  0  0  0  0  0  0  0  0  0  0  0
   29.8540   10.9130   21.4510 C   0  0  0  0  0  0  0  0  0  0  0  0
   27.8830    9.7800   21.2080 C   0  0  0  0  0  0  0  0  0  0  0  0
   27.3000   10.8010   20.4650 C   0  0  0  0  0  0  0  0  0  0  0  0
   28.0930   11.9190   20.2200 C   0  0  0  0  0  0  0  0  0  0  0  0
   29.3850   11.9780   20.7130 C   0  0  0  0  0  0  0  0  0  0  0  0
    0.0000    0.0000    0.0000 H   0  0  0  0  0  0  0  0  0  0  0  0
    0.0000    0.0000    0.0000 H   0  0  0  0  0  0  0  0  0  0  0  0
    0.0000    0.0000    0.0000 H   0  0  0  0  0  0  0  0  0  0  0  0
    0.0000    0.0000    0.0000 H   0  0  0  0  0  0  0  0  0  0  0  0
    0.0000    0.0000    0.0000 H   0  0  0  0  0  0  0  0  0  0  0  0
    0.0000    0.0000    0.0000 H   0  0  0  0  0  0  0  0  0  0  0  0
    0.0000    0.0000    0.0000 H   0  0  0  0  0  0  0  0  0  0  0  0
    0.0000    0.0000    0.0000 H   0  0  0  0  0  0  0  0  0  0  0  0
    0.0000    0.0000    0.0000 H   0  0  0  0  0  0  0  0  0  0  0  0
    0.0000    0.0000    0.0000 H   0  0  0  0  0  0  0  0  0  0  0  0
    0.0000    0.0000    0.0000 H   0  0  0  0  0  0  0  0  0  0  0  0
    0.0000    0.0000    0.0000 H   0  0  0  0  0  0  0  0  0  0  0  0
    0.0000    0.0000    0.0000 H   0  0  0  0  0  0  0  0  0  0  0  0
   10.7972    5.1562   10.4212 N   0  0  0  0  0  0  0  0  0  0  0  0
   10.9688    6.0217    9.8459 H   0  0  0  0  0  0  0  0  0  0  0  0
   10.0722    5.3729   11.1299 H   0  0  0  0  0  0  0  0  0  0  0  0
  1  3  2  0
  1  4  1  0
  2  4  1  0
  1  5  1  0
  2  6  1  0
  5  6  1  0
  6  7  2  3
  5  8  1  0
  4 10  1  0
 10 11  2  0
 11 12  1  0
 12 13  2  0
 13 14  1  0
 10 15  1  0
 14 15  2  0
  9 16  2  0
  9 17  1  0
 14 18  1  0
 17 18  2  0
 18 19  1  0
 16 20  1  0
 19 20  2  0
  2 21  1  0
  7 22  1  0
  8 23  1  0
  8 24  1  0
  8 25  1  0
 11 26  1  0
 12 27  1  0
 13 28  1  0
 15 29  1  0
 16 30  1  0
 17 31  1  0
 19 32  1  0
 20 33  1  0
 34 35  1  0
 34 36  1  0
  4 34  1  6
M  END
>  <attachment_point>  (6) 
21

>  <score>  (6) 
<NA>

$$$$
4djw
     RDKit          3D

 34 36  0  0  0  0  0  0  0  0999 V2000
   22.4950   11.8750   22.5810 C   0  0  0  0  0  0  0  0  0  0  0  0
   22.5380    9.4930   22.4640 N   0  0  0  0  0  0  0  0  0  0  0  0
   22.3600   13.0630   22.3480 O   0  0  0  0  0  0  0  0  0  0  0  0
   22.3390   10.6680   21.5610 C   0  0  2  0  0  0  0  0  0  0  0  0
   22.7860   11.3350   23.8120 N   0  0  0  0  0  0  0  0  0  0  0  0
   22.7800    9.9140   23.7010 C   0  0  0  0  0  0  0  0  0  0  0  0
   22.9970    9.1110   24.7490 N   0  0  0  0  0  0  0  0  0  0  0  0
   23.0220   12.1410   25.0180 C   0  0  0  0  0  0  0  0  0  0  0  0
   29.1260    9.8230   21.7090 N   0  0  0  0  0  0  0  0  0  0  0  0
   23.4880   10.6920   20.5300 C   0  0  0  0  0  0  0  0  0  0  0  0
   23.2110   10.7890   19.1730 C   0  0  0  0  0  0  0  0  0  0  0  0
   24.2350   10.8650   18.2430 C   0  0  0  0  0  0  0  0  0  0  0  0
   25.5500   10.8410   18.6560 C   0  0  0  0  0  0  0  0  0  0  0  0
   25.8710   10.7460   20.0070 C   0  0  0  0  0  0  0  0  0  0  0  0
   24.8260   10.6610   20.9430 C   0  0  0  0  0  0  0  0  0  0  0  0
   29.8540   10.9130   21.4510 C   0  0  0  0  0  0  0  0  0  0  0  0
   27.8830    9.7800   21.2080 C   0  0  0  0  0  0  0  0  0  0  0  0
   27.3000   10.8010   20.4650 C   0  0  0  0  0  0  0  0  0  0  0  0
   28.0930   11.9190   20.2200 C   0  0  0  0  0  0  0  0  0  0  0  0
   29.3850   11.9780   20.7130 C   0  0  0  0  0  0  0  0  0  0  0  0
    0.0000    0.0000    0.0000 H   0  0  0  0  0  0  0  0  0  0  0  0
    0.0000    0.0000    0.0000 H   0  0  0  0  0  0  0  0  0  0  0  0
    0.0000    0.0000    0.0000 H   0  0  0  0  0  0  0  0  0  0  0  0
    0.0000    0.0000    0.0000 H   0  0  0  0  0  0  0  0  0  0  0  0
    0.0000    0.0000    0.0000 H   0  0  0  0  0  0  0  0  0  0  0  0
    0.0000    0.0000    0.0000 H   0  0  0  0  0  0  0  0  0  0  0  0
    0.0000    0.0000    0.0000 H   0  0  0  0  0  0  0  0  0  0  0  0
    0.0000    0.0000    0.0000 H   0  0  0  0  0  0  0  0  0  0  0  0
    0.0000    0.0000    0.0000 H   0  0  0  0  0  0  0  0  0  0  0  0
    0.0000    0.0000    0.0000 H   0  0  0  0  0  0  0  0  0  0  0  0
    0.0000    0.0000    0.0000 H   0  0  0  0  0  0  0  0  0  0  0  0
    0.0000    0.0000    0.0000 H   0  0  0  0  0  0  0  0  0  0  0  0
    0.0000    0.0000    0.0000 H   0  0  0  0  0  0  0  0  0  0  0  0
   10.9177    5.2138   10.5375 Cl  0  0  0  0  0  0  0  0  0  0  0  0
  1  3  2  0
  1  4  1  0
  2  4  1  0
  1  5  1  0
  2  6  1  0
  5  6  1  0
  6  7  2  3
  5  8  1  0
  4 10  1  0
 10 11  2  0
 11 12  1  0
 12 13  2  0
 13 14  1  0
 10 15  1  0
 14 15  2  0
  9 16  2  0
  9 17  1  0
 14 18  1  0
 17 18  2  0
 18 19  1  0
 16 20  1  0
 19 20  2  0
  2 21  1  0
  7 22  1  0
  8 23  1  0
  8 24  1  0
  8 25  1  0
 11 26  1  0
 12 27  1  0
 13 28  1  0
 15 29  1  0
 16 30  1  0
 17 31  1  0
 19 32  1  0
 20 33  1  0
  4 34  1  6
M  END
>  <attachment_point>  (7) 
21

>  <score>  (7) 
<NA>

$$$$
4djw
     RDKit          3D

 34 36  0  0  0  0  0  0  0  0999 V2000
   22.4950   11.8750   22.5810 C   0  0  0  0  0  0  0  0  0  0  0  0
   22.5380    9.4930   22.4640 N   0  0  0  0  0  0  0  0  0  0  0  0
   22.3600   13.0630   22.3480 O   0  0  0  0  0  0  0  0  0  0  0  0
   22.3390   10.6680   21.5610 C   0  0  2  0  0  0  0  0  0  0  0  0
   22.7860   11.3350   23.8120 N   0  0  0  0  0  0  0  0  0  0  0  0
   22.7800    9.9140   23.7010 C   0  0  0  0  0  0  0  0  0  0  0  0
   22.9970    9.1110   24.7490 N   0  0  0  0  0  0  0  0  0  0  0  0
   23.0220   12.1410   25.0180 C   0  0  0  0  0  0  0  0  0  0  0  0
   29.1260    9.8230   21.7090 N   0  0  0  0  0  0  0  0  0  0  0  0
   23.4880   10.6920   20.5300 C   0  0  0  0  0  0  0  0  0  0  0  0
   23.2110   10.7890   19.1730 C   0  0  0  0  0  0  0  0  0  0  0  0
   24.2350   10.8650   18.2430 C   0  0  0  0  0  0  0  0  0  0  0  0
   25.5500   10.8410   18.6560 C   0  0  0  0  0  0  0  0  0  0  0  0
   25.8710   10.7460   20.0070 C   0  0  0  0  0  0  0  0  0  0  0  0
   24.8260   10.6610   20.9430 C   0  0  0  0  0  0  0  0  0  0  0  0
   29.8540   10.9130   21.4510 C   0  0  0  0  0  0  0  0  0  0  0  0
   27.8830    9.7800   21.2080 C   0  0  0  0  0  0  0  0  0  0  0  0
   27.3000   10.8010   20.4650 C   0  0  0  0  0  0  0  0  0  0  0  0
   28.0930   11.9190   20.2200 C   0  0  0  0  0  0  0  0  0  0  0  0
   29.3850   11.9780   20.7130 C   0  0  0  0  0  0  0  0  0  0  0  0
    0.0000    0.0000    0.0000 H   0  0  0  0  0  0  0  0  0  0  0  0
    0.0000    0.0000    0.0000 H   0  0  0  0  0  0  0  0  0  0  0  0
    0.0000    0.0000    0.0000 H   0  0  0  0  0  0  0  0  0  0  0  0
    0.0000    0.0000    0.0000 H   0  0  0  0  0  0  0  0  0  0  0  0
    0.0000    0.0000    0.0000 H   0  0  0  0  0  0  0  0  0  0  0  0
    0.0000    0.0000    0.0000 H   0  0  0  0  0  0  0  0  0  0  0  0
    0.0000    0.0000    0.0000 H   0  0  0  0  0  0  0  0  0  0  0  0
    0.0000    0.0000    0.0000 H   0  0  0  0  0  0  0  0  0  0  0  0
    0.0000    0.0000    0.0000 H   0  0  0  0  0  0  0  0  0  0  0  0
    0.0000    0.0000    0.0000 H   0  0  0  0  0  0  0  0  0  0  0  0
    0.0000    0.0000    0.0000 H   0  0  0  0  0  0  0  0  0  0  0  0
    0.0000    0.0000    0.0000 H   0  0  0  0  0  0  0  0  0  0  0  0
    0.0000    0.0000    0.0000 H   0  0  0  0  0  0  0  0  0  0  0  0
   10.9360    5.2225   10.5551 F   0  0  0  0  0  0  0  0  0  0  0  0
  1  3  2  0
  1  4  1  0
  2  4  1  0
  1  5  1  0
  2  6  1  0
  5  6  1  0
  6  7  2  3
  5  8  1  0
  4 10  1  0
 10 11  2  0
 11 12  1  0
 12 13  2  0
 13 14  1  0
 10 15  1  0
 14 15  2  0
  9 16  2  0
  9 17  1  0
 14 18  1  0
 17 18  2  0
 18 19  1  0
 16 20  1  0
 19 20  2  0
  2 21  1  0
  7 22  1  0
  8 23  1  0
  8 24  1  0
  8 25  1  0
 11 26  1  0
 12 27  1  0
 13 28  1  0
 15 29  1  0
 16 30  1  0
 17 31  1  0
 19 32  1  0
 20 33  1  0
  4 34  1  6
M  END
>  <attachment_point>  (8) 
21

>  <score>  (8) 
<NA>

$$$$
4djw
     RDKit          3D

 40 42  0  0  0  0  0  0  0  0999 V2000
   22.4950   11.8750   22.5810 C   0  0  0  0  0  0  0  0  0  0  0  0
   22.5380    9.4930   22.4640 N   0  0  0  0  0  0  0  0  0  0  0  0
   22.3600   13.0630   22.3480 O   0  0  0  0  0  0  0  0  0  0  0  0
   22.3390   10.6680   21.5610 C   0  0  2  0  0  0  0  0  0  0  0  0
   22.7860   11.3350   23.8120 N   0  0  0  0  0  0  0  0  0  0  0  0
   22.7800    9.9140   23.7010 C   0  0  0  0  0  0  0  0  0  0  0  0
   22.9970    9.1110   24.7490 N   0  0  0  0  0  0  0  0  0  0  0  0
   23.0220   12.1410   25.0180 C   0  0  0  0  0  0  0  0  0  0  0  0
   29.1260    9.8230   21.7090 N   0  0  0  0  0  0  0  0  0  0  0  0
   23.4880   10.6920   20.5300 C   0  0  0  0  0  0  0  0  0  0  0  0
   23.2110   10.7890   19.1730 C   0  0  0  0  0  0  0  0  0  0  0  0
   24.2350   10.8650   18.2430 C   0  0  0  0  0  0  0  0  0  0  0  0
   25.5500   10.8410   18.6560 C   0  0  0  0  0  0  0  0  0  0  0  0
   25.8710   10.7460   20.0070 C   0  0  0  0  0  0  0  0  0  0  0  0
   24.8260   10.6610   20.9430 C   0  0  0  0  0  0  0  0  0  0  0  0
   29.8540   10.9130   21.4510 C   0  0  0  0  0  0  0  0  0  0  0  0
   27.8830    9.7800   21.2080 C   0  0  0  0  0  0  0  0  0  0  0  0
   27.3000   10.8010   20.4650 C   0  0  0  0  0  0  0  0  0  0  0  0
   28.0930   11.9190   20.2200 C   0  0  0  0  0  0  0  0  0  0  0  0
   29.3850   11.9780   20.7130 C   0  0  0  0  0  0  0  0  0  0  0  0
    0.0000    0.0000    0.0000 H   0  0  0  0  0  0  0  0  0  0  0  0
    0.0000    0.0000    0.0000 H   0  0  0  0  0  0  0  0  0  0  0  0
    0.0000    0.0000    0.0000 H   0  0  0  0  0  0  0  0  0  0  0  0
    0.0000    0.0000    0.0000 H   0  0  0  0  0  0  0  0  0  0  0  0
    0.0000    0.0000    0.0000 H   0  0  0  0  0  0  0  0  0  0  0  0
    0.0000    0.0000    0.0000 H   0  0  0  0  0  0  0  0  0  0  0  0
    0.0000    0.0000    0.0000 H   0  0  0  0  0  0  0  0  0  0  0  0
    0.0000    0.0000    0.0000 H   0  0  0  0  0  0  0  0  0  0  0  0
    0.0000    0.0000    0.0000 H   0  0  0  0  0  0  0  0  0  0  0  0
    0.0000    0.0000    0.0000 H   0  0  0  0  0  0  0  0  0  0  0  0
    0.0000    0.0000    0.0000 H   0  0  0  0  0  0  0  0  0  0  0  0
    0.0000    0.0000    0.0000 H   0  0  0  0  0  0  0  0  0  0  0  0
    0.0000    0.0000    0.0000 H   0  0  0  0  0  0  0  0  0  0  0  0
   10.8551    5.1839   10.4771 C   0  0  0  0  0  0  0  0  0  0  0  0
   11.6096    4.1183    9.7294 C   0  0  0  0  0  0  0  0  0  0  0  0
   10.5412    6.0315    9.8683 H   0  0  0  0  0  0  0  0  0  0  0  0
   10.0366    4.7323   11.0601 H   0  0  0  0  0  0  0  0  0  0  0  0
   11.5474    3.1858   10.3608 H   0  0  0  0  0  0  0  0  0  0  0  0
   12.7024    4.3338    9.6497 H   0  0  0  0  0  0  0  0  0  0  0  0
   11.1995    3.8834    8.7488 H   0  0  0  0  0  0  0  0  0  0  0  0
  1  3  2  0
  1  4  1  0
  2  4  1  0
  1  5  1  0
  2  6  1  0
  5  6  1  0
  6  7  2  3
  5  8  1  0
  4 10  1  0
 10 11  2  0
 11 12  1  0
 12 13  2  0
 13 14  1  0
 10 15  1  0
 14 15  2  0
  9 16  2  0
  9 17  1  0
 14 18  1  0
 17 18  2  0
 18 19  1  0
 16 20  1  0
 19 20  2  0
  2 21  1  0
  7 22  1  0
  8 23  1  0
  8 24  1  0
  8 25  1  0
 11 26  1  0
 12 27  1  0
 13 28  1  0
 15 29  1  0
 16 30  1  0
 17 31  1  0
 19 32  1  0
 20 33  1  0
 34 35  1  0
 34 36  1  0
 34 37  1  0
 35 38  1  0
 35 39  1  0
 35 40  1  0
  4 34  1  6
M  END
>  <attachment_point>  (9) 
21

>  <score>  (9) 
<NA>

$$$$
4djw
     RDKit          3D

 35 37  0  0  0  0  0  0  0  0999 V2000
   22.4950   11.8750   22.5810 C   0  0  0  0  0  0  0  0  0  0  0  0
   22.5380    9.4930   22.4640 N   0  0  0  0  0  0  0  0  0  0  0  0
   22.3600   13.0630   22.3480 O   0  0  0  0  0  0  0  0  0  0  0  0
   22.3390   10.6680   21.5610 C   0  0  2  0  0  0  0  0  0  0  0  0
   22.7860   11.3350   23.8120 N   0  0  0  0  0  0  0  0  0  0  0  0
   22.7800    9.9140   23.7010 C   0  0  0  0  0  0  0  0  0  0  0  0
   22.9970    9.1110   24.7490 N   0  0  0  0  0  0  0  0  0  0  0  0
   23.0220   12.1410   25.0180 C   0  0  0  0  0  0  0  0  0  0  0  0
   29.1260    9.8230   21.7090 N   0  0  0  0  0  0  0  0  0  0  0  0
   23.4880   10.6920   20.5300 C   0  0  0  0  0  0  0  0  0  0  0  0
   23.2110   10.7890   19.1730 C   0  0  0  0  0  0  0  0  0  0  0  0
   24.2350   10.8650   18.2430 C   0  0  0  0  0  0  0  0  0  0  0  0
   25.5500   10.8410   18.6560 C   0  0  0  0  0  0  0  0  0  0  0  0
   25.8710   10.7460   20.0070 C   0  0  0  0  0  0  0  0  0  0  0  0
   24.8260   10.6610   20.9430 C   0  0  0  0  0  0  0  0  0  0  0  0
   29.8540   10.9130   21.4510 C   0  0  0  0  0  0  0  0  0  0  0  0
   27.8830    9.7800   21.2080 C   0  0  0  0  0  0  0  0  0  0  0  0
   27.3000   10.8010   20.4650 C   0  0  0  0  0  0  0  0  0  0  0  0
   28.0930   11.9190   20.2200 C   0  0  0  0  0  0  0  0  0  0  0  0
   29.3850   11.9780   20.7130 C   0  0  0  0  0  0  0  0  0  0  0  0
    0.0000    0.0000    0.0000 H   0  0  0  0  0  0  0  0  0  0  0  0
    0.0000    0.0000    0.0000 H   0  0  0  0  0  0  0  0  0  0  0  0
    0.0000    0.0000    0.0000 H   0  0  0  0  0  0  0  0  0  0  0  0
    0.0000    0.0000    0.0000 H   0  0  0  0  0  0  0  0  0  0  0  0
    0.0000    0.0000    0.0000 H   0  0  0  0  0  0  0  0  0  0  0  0
    0.0000    0.0000    0.0000 H   0  0  0  0  0  0  0  0  0  0  0  0
    0.0000    0.0000    0.0000 H   0  0  0  0  0  0  0  0  0  0  0  0
    0.0000    0.0000    0.0000 H   0  0  0  0  0  0  0  0  0  0  0  0
    0.0000    0.0000    0.0000 H   0  0  0  0  0  0  0  0  0  0  0  0
    0.0000    0.0000    0.0000 H   0  0  0  0  0  0  0  0  0  0  0  0
    0.0000    0.0000    0.0000 H   0  0  0  0  0  0  0  0  0  0  0  0
    0.0000    0.0000    0.0000 H   0  0  0  0  0  0  0  0  0  0  0  0
    0.0000    0.0000    0.0000 H   0  0  0  0  0  0  0  0  0  0  0  0
   10.8625    5.1874   10.4842 C   0  0  0  0  0  0  0  0  0  0  0  0
   10.0836    4.8135    9.7334 N   0  0  0  0  0  0  0  0  0  0  0  0
  1  3  2  0
  1  4  1  0
  2  4  1  0
  1  5  1  0
  2  6  1  0
  5  6  1  0
  6  7  2  3
  5  8  1  0
  4 10  1  0
 10 11  2  0
 11 12  1  0
 12 13  2  0
 13 14  1  0
 10 15  1  0
 14 15  2  0
  9 16  2  0
  9 17  1  0
 14 18  1  0
 17 18  2  0
 18 19  1  0
 16 20  1  0
 19 20  2  0
  2 21  1  0
  7 22  1  0
  8 23  1  0
  8 24  1  0
  8 25  1  0
 11 26  1  0
 12 27  1  0
 13 28  1  0
 15 29  1  0
 16 30  1  0
 17 31  1  0
 19 32  1  0
 20 33  1  0
 34 35  3  0
  4 34  1  6
M  END
>  <attachment_point>  (10) 
21

>  <score>  (10) 
<NA>

$$$$
4djw
     RDKit          3D

 37 39  0  0  0  0  0  0  0  0999 V2000
   22.4950   11.8750   22.5810 C   0  0  0  0  0  0  0  0  0  0  0  0
   22.5380    9.4930   22.4640 N   0  0  0  0  0  0  0  0  0  0  0  0
   22.3600   13.0630   22.3480 O   0  0  0  0  0  0  0  0  0  0  0  0
   22.3390   10.6680   21.5610 C   0  0  2  0  0  0  0  0  0  0  0  0
   22.7860   11.3350   23.8120 N   0  0  0  0  0  0  0  0  0  0  0  0
   22.7800    9.9140   23.7010 C   0  0  0  0  0  0  0  0  0  0  0  0
   22.9970    9.1110   24.7490 N   0  0  0  0  0  0  0  0  0  0  0  0
   23.0220   12.1410   25.0180 C   0  0  0  0  0  0  0  0  0  0  0  0
   29.1260    9.8230   21.7090 N   0  0  0  0  0  0  0  0  0  0  0  0
   23.4880   10.6920   20.5300 C   0  0  0  0  0  0  0  0  0  0  0  0
   23.2110   10.7890   19.1730 C   0  0  0  0  0  0  0  0  0  0  0  0
   24.2350   10.8650   18.2430 C   0  0  0  0  0  0  0  0  0  0  0  0
   25.5500   10.8410   18.6560 C   0  0  0  0  0  0  0  0  0  0  0  0
   25.8710   10.7460   20.0070 C   0  0  0  0  0  0  0  0  0  0  0  0
   24.8260   10.6610   20.9430 C   0  0  0  0  0  0  0  0  0  0  0  0
   29.8540   10.9130   21.4510 C   0  0  0  0  0  0  0  0  0  0  0  0
   27.8830    9.7800   21.2080 C   0  0  0  0  0  0  0  0  0  0  0  0
   27.3000   10.8010   20.4650 C   0  0  0  0  0  0  0  0  0  0  0  0
   28.0930   11.9190   20.2200 C   0  0  0  0  0  0  0  0  0  0  0  0
   29.3850   11.9780   20.7130 C   0  0  0  0  0  0  0  0  0  0  0  0
    0.0000    0.0000    0.0000 H   0  0  0  0  0  0  0  0  0  0  0  0
    0.0000    0.0000    0.0000 H   0  0  0  0  0  0  0  0  0  0  0  0
    0.0000    0.0000    0.0000 H   0  0  0  0  0  0  0  0  0  0  0  0
    0.0000    0.0000    0.0000 H   0  0  0  0  0  0  0  0  0  0  0  0
    0.0000    0.0000    0.0000 H   0  0  0  0  0  0  0  0  0  0  0  0
    0.0000    0.0000    0.0000 H   0  0  0  0  0  0  0  0  0  0  0  0
    0.0000    0.0000    0.0000 H   0  0  0  0  0  0  0  0  0  0  0  0
    0.0000    0.0000    0.0000 H   0  0  0  0  0  0  0  0  0  0  0  0
    0.0000    0.0000    0.0000 H   0  0  0  0  0  0  0  0  0  0  0  0
    0.0000    0.0000    0.0000 H   0  0  0  0  0  0  0  0  0  0  0  0
    0.0000    0.0000    0.0000 H   0  0  0  0  0  0  0  0  0  0  0  0
    0.0000    0.0000    0.0000 H   0  0  0  0  0  0  0  0  0  0  0  0
    0.0000    0.0000    0.0000 H   0  0  0  0  0  0  0  0  0  0  0  0
   10.8520    5.1824   10.4741 C   0  0  0  0  0  0  0  0  0  0  0  0
    9.6751    5.2559   10.8241 O   0  0  0  0  0  0  0  0  0  0  0  0
   11.2123    4.6851    9.2574 O   0  0  0  0  0  0  0  0  0  0  0  0
   10.6082    3.9769    8.8418 H   0  0  0  0  0  0  0  0  0  0  0  0
  1  3  2  0
  1  4  1  0
  2  4  1  0
  1  5  1  0
  2  6  1  0
  5  6  1  0
  6  7  2  3
  5  8  1  0
  4 10  1  0
 10 11  2  0
 11 12  1  0
 12 13  2  0
 13 14  1  0
 10 15  1  0
 14 15  2  0
  9 16  2  0
  9 17  1  0
 14 18  1  0
 17 18  2  0
 18 19  1  0
 16 20  1  0
 19 20  2  0
  2 21  1  0
  7 22  1  0
  8 23  1  0
  8 24  1  0
  8 25  1  0
 11 26  1  0
 12 27  1  0
 13 28  1  0
 15 29  1  0
 16 30  1  0
 17 31  1  0
 19 32  1  0
 20 33  1  0
 34 35  2  0
 34 36  1  0
 36 37  1  0
  4 34  1  6
M  END
>  <attachment_point>  (11) 
21

>  <score>  (11) 
<NA>

$$$$
4djw
     RDKit          3D

 34 36  0  0  0  0  0  0  0  0999 V2000
   22.4950   11.8750   22.5810 C   0  0  0  0  0  0  0  0  0  0  0  0
   22.5380    9.4930   22.4640 N   0  0  0  0  0  0  0  0  0  0  0  0
   22.3600   13.0630   22.3480 O   0  0  0  0  0  0  0  0  0  0  0  0
   22.3390   10.6680   21.5610 C   0  0  2  0  0  0  0  0  0  0  0  0
   22.7860   11.3350   23.8120 N   0  0  0  0  0  0  0  0  0  0  0  0
   22.7800    9.9140   23.7010 C   0  0  0  0  0  0  0  0  0  0  0  0
   22.9970    9.1110   24.7490 N   0  0  0  0  0  0  0  0  0  0  0  0
   23.0220   12.1410   25.0180 C   0  0  0  0  0  0  0  0  0  0  0  0
   29.1260    9.8230   21.7090 N   0  0  0  0  0  0  0  0  0  0  0  0
   23.4880   10.6920   20.5300 C   0  0  0  0  0  0  0  0  0  0  0  0
   23.2110   10.7890   19.1730 C   0  0  0  0  0  0  0  0  0  0  0  0
   24.2350   10.8650   18.2430 C   0  0  0  0  0  0  0  0  0  0  0  0
   25.5500   10.8410   18.6560 C   0  0  0  0  0  0  0  0  0  0  0  0
   25.8710   10.7460   20.0070 C   0  0  0  0  0  0  0  0  0  0  0  0
   24.8260   10.6610   20.9430 C   0  0  0  0  0  0  0  0  0  0  0  0
   29.8540   10.9130   21.4510 C   0  0  0  0  0  0  0  0  0  0  0  0
   27.8830    9.7800   21.2080 C   0  0  0  0  0  0  0  0  0  0  0  0
   27.3000   10.8010   20.4650 C   0  0  0  0  0  0  0  0  0  0  0  0
   28.0930   11.9190   20.2200 C   0  0  0  0  0  0  0  0  0  0  0  0
   29.3850   11.9780   20.7130 C   0  0  0  0  0  0  0  0  0  0  0  0
    0.0000    0.0000    0.0000 H   0  0  0  0  0  0  0  0  0  0  0  0
    0.0000    0.0000    0.0000 H   0  0  0  0  0  0  0  0  0  0  0  0
    0.0000    0.0000    0.0000 H   0  0  0  0  0  0  0  0  0  0  0  0
    0.0000    0.0000    0.0000 H   0  0  0  0  0  0  0  0  0  0  0  0
    0.0000    0.0000    0.0000 H   0  0  0  0  0  0  0  0  0  0  0  0
    0.0000    0.0000    0.0000 H   0  0  0  0  0  0  0  0  0  0  0  0
    0.0000    0.0000    0.0000 H   0  0  0  0  0  0  0  0  0  0  0  0
    0.0000    0.0000    0.0000 H   0  0  0  0  0  0  0  0  0  0  0  0
    0.0000    0.0000    0.0000 H   0  0  0  0  0  0  0  0  0  0  0  0
    0.0000    0.0000    0.0000 H   0  0  0  0  0  0  0  0  0  0  0  0
    0.0000    0.0000    0.0000 H   0  0  0  0  0  0  0  0  0  0  0  0
    0.0000    0.0000    0.0000 H   0  0  0  0  0  0  0  0  0  0  0  0
    0.0000    0.0000    0.0000 H   0  0  0  0  0  0  0  0  0  0  0  0
   11.0026    5.2543   10.6195 Br  0  0  0  0  0  0  0  0  0  0  0  0
  1  3  2  0
  1  4  1  0
  2  4  1  0
  1  5  1  0
  2  6  1  0
  5  6  1  0
  6  7  2  3
  5  8  1  0
  4 10  1  0
 10 11  2  0
 11 12  1  0
 12 13  2  0
 13 14  1  0
 10 15  1  0
 14 15  2  0
  9 16  2  0
  9 17  1  0
 14 18  1  0
 17 18  2  0
 18 19  1  0
 16 20  1  0
 19 20  2  0
  2 21  1  0
  7 22  1  0
  8 23  1  0
  8 24  1  0
  8 25  1  0
 11 26  1  0
 12 27  1  0
 13 28  1  0
 15 29  1  0
 16 30  1  0
 17 31  1  0
 19 32  1  0
 20 33  1  0
  4 34  1  6
M  END
>  <attachment_point>  (12) 
21

>  <score>  (12) 
<NA>

$$$$
4djw
     RDKit          3D

 37 39  0  0  0  0  0  0  0  0999 V2000
   22.4950   11.8750   22.5810 C   0  0  0  0  0  0  0  0  0  0  0  0
   22.5380    9.4930   22.4640 N   0  0  0  0  0  0  0  0  0  0  0  0
   22.3600   13.0630   22.3480 O   0  0  0  0  0  0  0  0  0  0  0  0
   22.3390   10.6680   21.5610 C   0  0  2  0  0  0  0  0  0  0  0  0
   22.7860   11.3350   23.8120 N   0  0  0  0  0  0  0  0  0  0  0  0
   22.7800    9.9140   23.7010 C   0  0  0  0  0  0  0  0  0  0  0  0
   22.9970    9.1110   24.7490 N   0  0  0  0  0  0  0  0  0  0  0  0
   23.0220   12.1410   25.0180 C   0  0  0  0  0  0  0  0  0  0  0  0
   29.1260    9.8230   21.7090 N   0  0  0  0  0  0  0  0  0  0  0  0
   23.4880   10.6920   20.5300 C   0  0  0  0  0  0  0  0  0  0  0  0
   23.2110   10.7890   19.1730 C   0  0  0  0  0  0  0  0  0  0  0  0
   24.2350   10.8650   18.2430 C   0  0  0  0  0  0  0  0  0  0  0  0
   25.5500   10.8410   18.6560 C   0  0  0  0  0  0  0  0  0  0  0  0
   25.8710   10.7460   20.0070 C   0  0  0  0  0  0  0  0  0  0  0  0
   24.8260   10.6610   20.9430 C   0  0  0  0  0  0  0  0  0  0  0  0
   29.8540   10.9130   21.4510 C   0  0  0  0  0  0  0  0  0  0  0  0
   27.8830    9.7800   21.2080 C   0  0  0  0  0  0  0  0  0  0  0  0
   27.3000   10.8010   20.4650 C   0  0  0  0  0  0  0  0  0  0  0  0
   28.0930   11.9190   20.2200 C   0  0  0  0  0  0  0  0  0  0  0  0
   29.3850   11.9780   20.7130 C   0  0  0  0  0  0  0  0  0  0  0  0
    0.0000    0.0000    0.0000 H   0  0  0  0  0  0  0  0  0  0  0  0
    0.0000    0.0000    0.0000 H   0  0  0  0  0  0  0  0  0  0  0  0
    0.0000    0.0000    0.0000 H   0  0  0  0  0  0  0  0  0  0  0  0
    0.0000    0.0000    0.0000 H   0  0  0  0  0  0  0  0  0  0  0  0
    0.0000    0.0000    0.0000 H   0  0  0  0  0  0  0  0  0  0  0  0
    0.0000    0.0000    0.0000 H   0  0  0  0  0  0  0  0  0  0  0  0
    0.0000    0.0000    0.0000 H   0  0  0  0  0  0  0  0  0  0  0  0
    0.0000    0.0000    0.0000 H   0  0  0  0  0  0  0  0  0  0  0  0
    0.0000    0.0000    0.0000 H   0  0  0  0  0  0  0  0  0  0  0  0
    0.0000    0.0000    0.0000 H   0  0  0  0  0  0  0  0  0  0  0  0
    0.0000    0.0000    0.0000 H   0  0  0  0  0  0  0  0  0  0  0  0
    0.0000    0.0000    0.0000 H   0  0  0  0  0  0  0  0  0  0  0  0
    0.0000    0.0000    0.0000 H   0  0  0  0  0  0  0  0  0  0  0  0
   10.8475    5.1802   10.4697 C   0  0  0  0  0  0  0  0  0  0  0  0
   11.0167    3.8308   10.3524 F   0  0  0  0  0  0  0  0  0  0  0  0
   11.1058    5.8760    9.3168 F   0  0  0  0  0  0  0  0  0  0  0  0
    9.6178    5.5205   11.0276 F   0  0  0  0  0  0  0  0  0  0  0  0
  1  3  2  0
  1  4  1  0
  2  4  1  0
  1  5  1  0
  2  6  1  0
  5  6  1  0
  6  7  2  3
  5  8  1  0
  4 10  1  0
 10 11  2  0
 11 12  1  0
 12 13  2  0
 13 14  1  0
 10 15  1  0
 14 15  2  0
  9 16  2  0
  9 17  1  0
 14 18  1  0
 17 18  2  0
 18 19  1  0
 16 20  1  0
 19 20  2  0
  2 21  1  0
  7 22  1  0
  8 23  1  0
  8 24  1  0
  8 25  1  0
 11 26  1  0
 12 27  1  0
 13 28  1  0
 15 29  1  0
 16 30  1  0
 17 31  1  0
 19 32  1  0
 20 33  1  0
 34 35  1  0
 34 36  1  0
 34 37  1  0
  4 34  1  6
M  END
>  <attachment_point>  (13) 
21

>  <score>  (13) 
<NA>

$$$$
4djw
     RDKit          3D

 43 45  0  0  0  0  0  0  0  0999 V2000
   22.4950   11.8750   22.5810 C   0  0  0  0  0  0  0  0  0  0  0  0
   22.5380    9.4930   22.4640 N   0  0  0  0  0  0  0  0  0  0  0  0
   22.3600   13.0630   22.3480 O   0  0  0  0  0  0  0  0  0  0  0  0
   22.3390   10.6680   21.5610 C   0  0  2  0  0  0  0  0  0  0  0  0
   22.7860   11.3350   23.8120 N   0  0  0  0  0  0  0  0  0  0  0  0
   22.7800    9.9140   23.7010 C   0  0  0  0  0  0  0  0  0  0  0  0
   22.9970    9.1110   24.7490 N   0  0  0  0  0  0  0  0  0  0  0  0
   23.0220   12.1410   25.0180 C   0  0  0  0  0  0  0  0  0  0  0  0
   29.1260    9.8230   21.7090 N   0  0  0  0  0  0  0  0  0  0  0  0
   23.4880   10.6920   20.5300 C   0  0  0  0  0  0  0  0  0  0  0  0
   23.2110   10.7890   19.1730 C   0  0  0  0  0  0  0  0  0  0  0  0
   24.2350   10.8650   18.2430 C   0  0  0  0  0  0  0  0  0  0  0  0
   25.5500   10.8410   18.6560 C   0  0  0  0  0  0  0  0  0  0  0  0
   25.8710   10.7460   20.0070 C   0  0  0  0  0  0  0  0  0  0  0  0
   24.8260   10.6610   20.9430 C   0  0  0  0  0  0  0  0  0  0  0  0
   29.8540   10.9130   21.4510 C   0  0  0  0  0  0  0  0  0  0  0  0
   27.8830    9.7800   21.2080 C   0  0  0  0  0  0  0  0  0  0  0  0
   27.3000   10.8010   20.4650 C   0  0  0  0  0  0  0  0  0  0  0  0
   28.0930   11.9190   20.2200 C   0  0  0  0  0  0  0  0  0  0  0  0
   29.3850   11.9780   20.7130 C   0  0  0  0  0  0  0  0  0  0  0  0
    0.0000    0.0000    0.0000 H   0  0  0  0  0  0  0  0  0  0  0  0
    0.0000    0.0000    0.0000 H   0  0  0  0  0  0  0  0  0  0  0  0
    0.0000    0.0000    0.0000 H   0  0  0  0  0  0  0  0  0  0  0  0
    0.0000    0.0000    0.0000 H   0  0  0  0  0  0  0  0  0  0  0  0
    0.0000    0.0000    0.0000 H   0  0  0  0  0  0  0  0  0  0  0  0
    0.0000    0.0000    0.0000 H   0  0  0  0  0  0  0  0  0  0  0  0
    0.0000    0.0000    0.0000 H   0  0  0  0  0  0  0  0  0  0  0  0
    0.0000    0.0000    0.0000 H   0  0  0  0  0  0  0  0  0  0  0  0
    0.0000    0.0000    0.0000 H   0  0  0  0  0  0  0  0  0  0  0  0
    0.0000    0.0000    0.0000 H   0  0  0  0  0  0  0  0  0  0  0  0
    0.0000    0.0000    0.0000 H   0  0  0  0  0  0  0  0  0  0  0  0
    0.0000    0.0000    0.0000 H   0  0  0  0  0  0  0  0  0  0  0  0
    0.0000    0.0000    0.0000 H   0  0  0  0  0  0  0  0  0  0  0  0
   10.8789    5.1952   10.5000 C   0  0  0  0  0  0  0  0  0  0  0  0
   11.4163    4.1472    9.5556 C   0  0  0  0  0  0  0  0  0  0  0  0
    9.6565    4.6053   11.1804 C   0  0  0  0  0  0  0  0  0  0  0  0
   10.5959    6.1157    9.9230 H   0  0  0  0  0  0  0  0  0  0  0  0
   11.1850    3.1155    9.9090 H   0  0  0  0  0  0  0  0  0  0  0  0
   10.8994    4.2918    8.5806 H   0  0  0  0  0  0  0  0  0  0  0  0
   12.4959    4.2335    9.4537 H   0  0  0  0  0  0  0  0  0  0  0  0
    9.9223    4.4315   12.2513 H   0  0  0  0  0  0  0  0  0  0  0  0
    8.7877    5.2832   11.0616 H   0  0  0  0  0  0  0  0  0  0  0  0
    9.3472    3.6382   10.7122 H   0  0  0  0  0  0  0  0  0  0  0  0
  1  3  2  0
  1  4  1  0
  2  4  1  0
  1  5  1  0
  2  6  1  0
  5  6  1  0
  6  7  2  3
  5  8  1  0
  4 10  1  0
 10 11  2  0
 11 12  1  0
 12 13  2  0
 13 14  1  0
 10 15  1  0
 14 15  2  0
  9 16  2  0
  9 17  1  0
 14 18  1  0
 17 18  2  0
 18 19  1  0
 16 20  1  0
 19 20  2  0
  2 21  1  0
  7 22  1  0
  8 23  1  0
  8 24  1  0
  8 25  1  0
 11 26  1  0
 12 27  1  0
 13 28  1  0
 15 29  1  0
 16 30  1  0
 17 31  1  0
 19 32  1  0
 20 33  1  0
 34 35  1  0
 34 36  1  0
 34 37  1  0
 35 38  1  0
 35 39  1  0
 35 40  1  0
 36 41  1  0
 36 42  1  0
 36 43  1  0
  4 34  1  6
M  END
>  <attachment_point>  (14) 
21

>  <score>  (14) 
<NA>

$$$$
4djw
     RDKit          3D

 47 50  0  0  0  0  0  0  0  0999 V2000
   22.4950   11.8750   22.5810 C   0  0  0  0  0  0  0  0  0  0  0  0
   22.5380    9.4930   22.4640 N   0  0  0  0  0  0  0  0  0  0  0  0
   22.3600   13.0630   22.3480 O   0  0  0  0  0  0  0  0  0  0  0  0
   22.3390   10.6680   21.5610 C   0  0  2  0  0  0  0  0  0  0  0  0
   22.7860   11.3350   23.8120 N   0  0  0  0  0  0  0  0  0  0  0  0
   22.7800    9.9140   23.7010 C   0  0  0  0  0  0  0  0  0  0  0  0
   22.9970    9.1110   24.7490 N   0  0  0  0  0  0  0  0  0  0  0  0
   23.0220   12.1410   25.0180 C   0  0  0  0  0  0  0  0  0  0  0  0
   29.1260    9.8230   21.7090 N   0  0  0  0  0  0  0  0  0  0  0  0
   23.4880   10.6920   20.5300 C   0  0  0  0  0  0  0  0  0  0  0  0
   23.2110   10.7890   19.1730 C   0  0  0  0  0  0  0  0  0  0  0  0
   24.2350   10.8650   18.2430 C   0  0  0  0  0  0  0  0  0  0  0  0
   25.5500   10.8410   18.6560 C   0  0  0  0  0  0  0  0  0  0  0  0
   25.8710   10.7460   20.0070 C   0  0  0  0  0  0  0  0  0  0  0  0
   24.8260   10.6610   20.9430 C   0  0  0  0  0  0  0  0  0  0  0  0
   29.8540   10.9130   21.4510 C   0  0  0  0  0  0  0  0  0  0  0  0
   27.8830    9.7800   21.2080 C   0  0  0  0  0  0  0  0  0  0  0  0
   27.3000   10.8010   20.4650 C   0  0  0  0  0  0  0  0  0  0  0  0
   28.0930   11.9190   20.2200 C   0  0  0  0  0  0  0  0  0  0  0  0
   29.3850   11.9780   20.7130 C   0  0  0  0  0  0  0  0  0  0  0  0
    0.0000    0.0000    0.0000 H   0  0  0  0  0  0  0  0  0  0  0  0
    0.0000    0.0000    0.0000 H   0  0  0  0  0  0  0  0  0  0  0  0
    0.0000    0.0000    0.0000 H   0  0  0  0  0  0  0  0  0  0  0  0
    0.0000    0.0000    0.0000 H   0  0  0  0  0  0  0  0  0  0  0  0
    0.0000    0.0000    0.0000 H   0  0  0  0  0  0  0  0  0  0  0  0
    0.0000    0.0000    0.0000 H   0  0  0  0  0  0  0  0  0  0  0  0
    0.0000    0.0000    0.0000 H   0  0  0  0  0  0  0  0  0  0  0  0
    0.0000    0.0000    0.0000 H   0  0  0  0  0  0  0  0  0  0  0  0
    0.0000    0.0000    0.0000 H   0  0  0  0  0  0  0  0  0  0  0  0
    0.0000    0.0000    0.0000 H   0  0  0  0  0  0  0  0  0  0  0  0
    0.0000    0.0000    0.0000 H   0  0  0  0  0  0  0  0  0  0  0  0
    0.0000    0.0000    0.0000 H   0  0  0  0  0  0  0  0  0  0  0  0
    0.0000    0.0000    0.0000 H   0  0  0  0  0  0  0  0  0  0  0  0
   10.8596    5.1860   10.4814 C   0  0  0  0  0  0  0  0  0  0  0  0
   11.5500    4.5424    9.3465 C   0  0  0  0  0  0  0  0  0  0  0  0
   11.9045    5.3265    8.2628 C   0  0  0  0  0  0  0  0  0  0  0  0
   12.5462    4.7038    7.2192 C   0  0  0  0  0  0  0  0  0  0  0  0
   12.8423    3.3523    7.2160 C   0  0  0  0  0  0  0  0  0  0  0  0
   12.4852    2.5743    8.3023 C   0  0  0  0  0  0  0  0  0  0  0  0
   11.8389    3.1908    9.3583 C   0  0  0  0  0  0  0  0  0  0  0  0
   10.3121    4.4345   11.1177 H   0  0  0  0  0  0  0  0  0  0  0  0
   10.2171    6.0206   10.1687 H   0  0  0  0  0  0  0  0  0  0  0  0
   11.6765    6.3950    8.2526 H   0  0  0  0  0  0  0  0  0  0  0  0
   12.8447    5.2774    6.3453 H   0  0  0  0  0  0  0  0  0  0  0  0
   13.3574    2.9259    6.3453 H   0  0  0  0  0  0  0  0  0  0  0  0
   12.7177    1.5055    8.3033 H   0  0  0  0  0  0  0  0  0  0  0  0
   11.5667    2.5531   10.2066 H   0  0  0  0  0  0  0  0  0  0  0  0
  1  3  2  0
  1  4  1  0
  2  4  1  0
  1  5  1  0
  2  6  1  0
  5  6  1  0
  6  7  2  3
  5  8  1  0
  4 10  1  0
 10 11  2  0
 11 12  1  0
 12 13  2  0
 13 14  1  0
 10 15  1  0
 14 15  2  0
  9 16  2  0
  9 17  1  0
 14 18  1  0
 17 18  2  0
 18 19  1  0
 16 20  1  0
 19 20  2  0
  2 21  1  0
  7 22  1  0
  8 23  1  0
  8 24  1  0
  8 25  1  0
 11 26  1  0
 12 27  1  0
 13 28  1  0
 15 29  1  0
 16 30  1  0
 17 31  1  0
 19 32  1  0
 20 33  1  0
 34 35  1  0
 35 36  2  0
 36 37  1  0
 37 38  2  0
 38 39  1  0
 39 40  2  0
 40 35  1  0
 34 41  1  0
 34 42  1  0
 36 43  1  0
 37 44  1  0
 38 45  1  0
 39 46  1  0
 40 47  1  0
  4 34  1  6
M  END
>  <attachment_point>  (15) 
21

>  <score>  (15) 
<NA>

$$$$
4djw
     RDKit          3D

 43 46  0  0  0  0  0  0  0  0999 V2000
   22.4950   11.8750   22.5810 C   0  0  0  0  0  0  0  0  0  0  0  0
   22.5380    9.4930   22.4640 N   0  0  0  0  0  0  0  0  0  0  0  0
   22.3600   13.0630   22.3480 O   0  0  0  0  0  0  0  0  0  0  0  0
   22.3390   10.6680   21.5610 C   0  0  2  0  0  0  0  0  0  0  0  0
   22.7860   11.3350   23.8120 N   0  0  0  0  0  0  0  0  0  0  0  0
   22.7800    9.9140   23.7010 C   0  0  0  0  0  0  0  0  0  0  0  0
   22.9970    9.1110   24.7490 N   0  0  0  0  0  0  0  0  0  0  0  0
   23.0220   12.1410   25.0180 C   0  0  0  0  0  0  0  0  0  0  0  0
   29.1260    9.8230   21.7090 N   0  0  0  0  0  0  0  0  0  0  0  0
   23.4880   10.6920   20.5300 C   0  0  0  0  0  0  0  0  0  0  0  0
   23.2110   10.7890   19.1730 C   0  0  0  0  0  0  0  0  0  0  0  0
   24.2350   10.8650   18.2430 C   0  0  0  0  0  0  0  0  0  0  0  0
   25.5500   10.8410   18.6560 C   0  0  0  0  0  0  0  0  0  0  0  0
   25.8710   10.7460   20.0070 C   0  0  0  0  0  0  0  0  0  0  0  0
   24.8260   10.6610   20.9430 C   0  0  0  0  0  0  0  0  0  0  0  0
   29.8540   10.9130   21.4510 C   0  0  0  0  0  0  0  0  0  0  0  0
   27.8830    9.7800   21.2080 C   0  0  0  0  0  0  0  0  0  0  0  0
   27.3000   10.8010   20.4650 C   0  0  0  0  0  0  0  0  0  0  0  0
   28.0930   11.9190   20.2200 C   0  0  0  0  0  0  0  0  0  0  0  0
   29.3850   11.9780   20.7130 C   0  0  0  0  0  0  0  0  0  0  0  0
    0.0000    0.0000    0.0000 H   0  0  0  0  0  0  0  0  0  0  0  0
    0.0000    0.0000    0.0000 H   0  0  0  0  0  0  0  0  0  0  0  0
    0.0000    0.0000    0.0000 H   0  0  0  0  0  0  0  0  0  0  0  0
    0.0000    0.0000    0.0000 H   0  0  0  0  0  0  0  0  0  0  0  0
    0.0000    0.0000    0.0000 H   0  0  0  0  0  0  0  0  0  0  0  0
    0.0000    0.0000    0.0000 H   0  0  0  0  0  0  0  0  0  0  0  0
    0.0000    0.0000    0.0000 H   0  0  0  0  0  0  0  0  0  0  0  0
    0.0000    0.0000    0.0000 H   0  0  0  0  0  0  0  0  0  0  0  0
    0.0000    0.0000    0.0000 H   0  0  0  0  0  0  0  0  0  0  0  0
    0.0000    0.0000    0.0000 H   0  0  0  0  0  0  0  0  0  0  0  0
    0.0000    0.0000    0.0000 H   0  0  0  0  0  0  0  0  0  0  0  0
    0.0000    0.0000    0.0000 H   0  0  0  0  0  0  0  0  0  0  0  0
    0.0000    0.0000    0.0000 H   0  0  0  0  0  0  0  0  0  0  0  0
   10.8336    5.1736   10.4563 C   0  0  0  0  0  0  0  0  0  0  0  0
    9.5331    5.3772   10.6619 C   0  0  0  0  0  0  0  0  0  0  0  0
    8.6540    4.8828    9.6813 C   0  0  0  0  0  0  0  0  0  0  0  0
    9.1128    4.2220    8.5649 C   0  0  0  0  0  0  0  0  0  0  0  0
   10.4356    4.0490    8.4162 N   0  0  0  0  0  0  0  0  0  0  0  0
   11.3088    4.5228    9.3597 C   0  0  0  0  0  0  0  0  0  0  0  0
    9.1487    5.8854   11.5168 H   0  0  0  0  0  0  0  0  0  0  0  0
    7.5997    5.0172    9.7937 H   0  0  0  0  0  0  0  0  0  0  0  0
    8.4191    3.8399    7.8053 H   0  0  0  0  0  0  0  0  0  0  0  0
   12.3783    4.3973    9.2649 H   0  0  0  0  0  0  0  0  0  0  0  0
  1  3  2  0
  1  4  1  0
  2  4  1  0
  1  5  1  0
  2  6  1  0
  5  6  1  0
  6  7  2  3
  5  8  1  0
  4 10  1  6
 10 11  2  0
 11 12  1  0
 12 13  2  0
 13 14  1  0
 10 15  1  0
 14 15  2  0
  9 16  2  0
  9 17  1  0
 14 18  1  0
 17 18  2  0
 18 19  1  0
 16 20  1  0
 19 20  2  0
  2 21  1  0
  7 22  1  0
  8 23  1  0
  8 24  1  0
  8 25  1  0
 11 26  1  0
 12 27  1  0
 13 28  1  0
 15 29  1  0
 16 30  1  0
 17 31  1  0
 19 32  1  0
 20 33  1  0
 34 35  2  0
 35 36  1  0
 36 37  2  0
 37 38  1  0
 38 39  2  0
 39 34  1  0
 35 40  1  0
 36 41  1  0
 37 42  1  0
 39 43  1  0
  4 34  1  0
M  END
>  <attachment_point>  (16) 
21

>  <score>  (16) 
<NA>

$$$$
4djw
     RDKit          3D

 43 46  0  0  0  0  0  0  0  0999 V2000
   22.4950   11.8750   22.5810 C   0  0  0  0  0  0  0  0  0  0  0  0
   22.5380    9.4930   22.4640 N   0  0  0  0  0  0  0  0  0  0  0  0
   22.3600   13.0630   22.3480 O   0  0  0  0  0  0  0  0  0  0  0  0
   22.3390   10.6680   21.5610 C   0  0  2  0  0  0  0  0  0  0  0  0
   22.7860   11.3350   23.8120 N   0  0  0  0  0  0  0  0  0  0  0  0
   22.7800    9.9140   23.7010 C   0  0  0  0  0  0  0  0  0  0  0  0
   22.9970    9.1110   24.7490 N   0  0  0  0  0  0  0  0  0  0  0  0
   23.0220   12.1410   25.0180 C   0  0  0  0  0  0  0  0  0  0  0  0
   29.1260    9.8230   21.7090 N   0  0  0  0  0  0  0  0  0  0  0  0
   23.4880   10.6920   20.5300 C   0  0  0  0  0  0  0  0  0  0  0  0
   23.2110   10.7890   19.1730 C   0  0  0  0  0  0  0  0  0  0  0  0
   24.2350   10.8650   18.2430 C   0  0  0  0  0  0  0  0  0  0  0  0
   25.5500   10.8410   18.6560 C   0  0  0  0  0  0  0  0  0  0  0  0
   25.8710   10.7460   20.0070 C   0  0  0  0  0  0  0  0  0  0  0  0
   24.8260   10.6610   20.9430 C   0  0  0  0  0  0  0  0  0  0  0  0
   29.8540   10.9130   21.4510 C   0  0  0  0  0  0  0  0  0  0  0  0
   27.8830    9.7800   21.2080 C   0  0  0  0  0  0  0  0  0  0  0  0
   27.3000   10.8010   20.4650 C   0  0  0  0  0  0  0  0  0  0  0  0
   28.0930   11.9190   20.2200 C   0  0  0  0  0  0  0  0  0  0  0  0
   29.3850   11.9780   20.7130 C   0  0  0  0  0  0  0  0  0  0  0  0
    0.0000    0.0000    0.0000 H   0  0  0  0  0  0  0  0  0  0  0  0
    0.0000    0.0000    0.0000 H   0  0  0  0  0  0  0  0  0  0  0  0
    0.0000    0.0000    0.0000 H   0  0  0  0  0  0  0  0  0  0  0  0
    0.0000    0.0000    0.0000 H   0  0  0  0  0  0  0  0  0  0  0  0
    0.0000    0.0000    0.0000 H   0  0  0  0  0  0  0  0  0  0  0  0
    0.0000    0.0000    0.0000 H   0  0  0  0  0  0  0  0  0  0  0  0
    0.0000    0.0000    0.0000 H   0  0  0  0  0  0  0  0  0  0  0  0
    0.0000    0.0000    0.0000 H   0  0  0  0  0  0  0  0  0  0  0  0
    0.0000    0.0000    0.0000 H   0  0  0  0  0  0  0  0  0  0  0  0
    0.0000    0.0000    0.0000 H   0  0  0  0  0  0  0  0  0  0  0  0
    0.0000    0.0000    0.0000 H   0  0  0  0  0  0  0  0  0  0  0  0
    0.0000    0.0000    0.0000 H   0  0  0  0  0  0  0  0  0  0  0  0
    0.0000    0.0000    0.0000 H   0  0  0  0  0  0  0  0  0  0  0  0
   10.8805    5.1960   10.5015 C   0  0  0  0  0  0  0  0  0  0  0  0
    9.8601    4.3857   10.9317 C   0  0  0  0  0  0  0  0  0  0  0  0
    8.9150    3.9291   10.0431 C   0  0  0  0  0  0  0  0  0  0  0  0
    9.0223    4.2963    8.7627 N   0  0  0  0  0  0  0  0  0  0  0  0
    9.9901    5.0834    8.2734 C   0  0  0  0  0  0  0  0  0  0  0  0
   10.9387    5.5411    9.1679 C   0  0  0  0  0  0  0  0  0  0  0  0
    9.7881    4.0943   11.9880 H   0  0  0  0  0  0  0  0  0  0  0  0
    8.1132    3.2856   10.4109 H   0  0  0  0  0  0  0  0  0  0  0  0
   10.0679    5.3738    7.2395 H   0  0  0  0  0  0  0  0  0  0  0  0
   11.7494    6.1890    8.8079 H   0  0  0  0  0  0  0  0  0  0  0  0
  1  3  2  0
  1  4  1  0
  2  4  1  0
  1  5  1  0
  2  6  1  0
  5  6  1  0
  6  7  2  3
  5  8  1  0
  4 10  1  6
 10 11  2  0
 11 12  1  0
 12 13  2  0
 13 14  1  0
 10 15  1  0
 14 15  2  0
  9 16  2  0
  9 17  1  0
 14 18  1  0
 17 18  2  0
 18 19  1  0
 16 20  1  0
 19 20  2  0
  2 21  1  0
  7 22  1  0
  8 23  1  0
  8 24  1  0
  8 25  1  0
 11 26  1  0
 12 27  1  0
 13 28  1  0
 15 29  1  0
 16 30  1  0
 17 31  1  0
 19 32  1  0
 20 33  1  0
 34 35  2  0
 35 36  1  0
 36 37  2  0
 37 38  1  0
 38 39  2  0
 39 34  1  0
 35 40  1  0
 36 41  1  0
 38 42  1  0
 39 43  1  0
  4 34  1  0
M  END
>  <attachment_point>  (17) 
21

>  <score>  (17) 
<NA>

$$$$
4djw
     RDKit          3D

 43 45  0  0  0  0  0  0  0  0999 V2000
   22.4950   11.8750   22.5810 C   0  0  0  0  0  0  0  0  0  0  0  0
   22.5380    9.4930   22.4640 N   0  0  0  0  0  0  0  0  0  0  0  0
   22.3600   13.0630   22.3480 O   0  0  0  0  0  0  0  0  0  0  0  0
   22.3390   10.6680   21.5610 C   0  0  2  0  0  0  0  0  0  0  0  0
   22.7860   11.3350   23.8120 N   0  0  0  0  0  0  0  0  0  0  0  0
   22.7800    9.9140   23.7010 C   0  0  0  0  0  0  0  0  0  0  0  0
   22.9970    9.1110   24.7490 N   0  0  0  0  0  0  0  0  0  0  0  0
   23.0220   12.1410   25.0180 C   0  0  0  0  0  0  0  0  0  0  0  0
   29.1260    9.8230   21.7090 N   0  0  0  0  0  0  0  0  0  0  0  0
   23.4880   10.6920   20.5300 C   0  0  0  0  0  0  0  0  0  0  0  0
   23.2110   10.7890   19.1730 C   0  0  0  0  0  0  0  0  0  0  0  0
   24.2350   10.8650   18.2430 C   0  0  0  0  0  0  0  0  0  0  0  0
   25.5500   10.8410   18.6560 C   0  0  0  0  0  0  0  0  0  0  0  0
   25.8710   10.7460   20.0070 C   0  0  0  0  0  0  0  0  0  0  0  0
   24.8260   10.6610   20.9430 C   0  0  0  0  0  0  0  0  0  0  0  0
   29.8540   10.9130   21.4510 C   0  0  0  0  0  0  0  0  0  0  0  0
   27.8830    9.7800   21.2080 C   0  0  0  0  0  0  0  0  0  0  0  0
   27.3000   10.8010   20.4650 C   0  0  0  0  0  0  0  0  0  0  0  0
   28.0930   11.9190   20.2200 C   0  0  0  0  0  0  0  0  0  0  0  0
   29.3850   11.9780   20.7130 C   0  0  0  0  0  0  0  0  0  0  0  0
    0.0000    0.0000    0.0000 H   0  0  0  0  0  0  0  0  0  0  0  0
    0.0000    0.0000    0.0000 H   0  0  0  0  0  0  0  0  0  0  0  0
    0.0000    0.0000    0.0000 H   0  0  0  0  0  0  0  0  0  0  0  0
    0.0000    0.0000    0.0000 H   0  0  0  0  0  0  0  0  0  0  0  0
    0.0000    0.0000    0.0000 H   0  0  0  0  0  0  0  0  0  0  0  0
    0.0000    0.0000    0.0000 H   0  0  0  0  0  0  0  0  0  0  0  0
    0.0000    0.0000    0.0000 H   0  0  0  0  0  0  0  0  0  0  0  0
    0.0000    0.0000    0.0000 H   0  0  0  0  0  0  0  0  0  0  0  0
    0.0000    0.0000    0.0000 H   0  0  0  0  0  0  0  0  0  0  0  0
    0.0000    0.0000    0.0000 H   0  0  0  0  0  0  0  0  0  0  0  0
    0.0000    0.0000    0.0000 H   0  0  0  0  0  0  0  0  0  0  0  0
    0.0000    0.0000    0.0000 H   0  0  0  0  0  0  0  0  0  0  0  0
    0.0000    0.0000    0.0000 H   0  0  0  0  0  0  0  0  0  0  0  0
   10.8878    5.1995   10.5086 C   0  0  0  0  0  0  0  0  0  0  0  0
   11.5809    4.9629    9.1749 C   0  0  0  0  0  0  0  0  0  0  0  0
   12.2006    6.2490    8.6695 C   0  0  0  0  0  0  0  0  0  0  0  0
   10.1075    5.9685   10.3560 H   0  0  0  0  0  0  0  0  0  0  0  0
   10.4141    4.3031   10.8999 H   0  0  0  0  0  0  0  0  0  0  0  0
   10.8619    4.5401    8.4352 H   0  0  0  0  0  0  0  0  0  0  0  0
   12.3785    4.2095    9.3159 H   0  0  0  0  0  0  0  0  0  0  0  0
   11.8207    6.5112    7.6447 H   0  0  0  0  0  0  0  0  0  0  0  0
   13.3145    6.1693    8.6694 H   0  0  0  0  0  0  0  0  0  0  0  0
   11.9288    7.0648    9.3718 H   0  0  0  0  0  0  0  0  0  0  0  0
  1  3  2  0
  1  4  1  0
  2  4  1  0
  1  5  1  0
  2  6  1  0
  5  6  1  0
  6  7  2  3
  5  8  1  0
  4 10  1  0
 10 11  2  0
 11 12  1  0
 12 13  2  0
 13 14  1  0
 10 15  1  0
 14 15  2  0
  9 16  2  0
  9 17  1  0
 14 18  1  0
 17 18  2  0
 18 19  1  0
 16 20  1  0
 19 20  2  0
  2 21  1  0
  7 22  1  0
  8 23  1  0
  8 24  1  0
  8 25  1  0
 11 26  1  0
 12 27  1  0
 13 28  1  0
 15 29  1  0
 16 30  1  0
 17 31  1  0
 19 32  1  0
 20 33  1  0
 34 35  1  0
 35 36  1  0
 34 37  1  0
 34 38  1  0
 35 39  1  0
 35 40  1  0
 36 41  1  0
 36 42  1  0
 36 43  1  0
  4 34  1  6
M  END
>  <attachment_point>  (18) 
21

>  <score>  (18) 
<NA>

$$$$
4djw
     RDKit          3D

 42 44  0  0  0  0  0  0  0  0999 V2000
   22.4950   11.8750   22.5810 C   0  0  0  0  0  0  0  0  0  0  0  0
   22.5380    9.4930   22.4640 N   0  0  0  0  0  0  0  0  0  0  0  0
   22.3600   13.0630   22.3480 O   0  0  0  0  0  0  0  0  0  0  0  0
   22.3390   10.6680   21.5610 C   0  0  2  0  0  0  0  0  0  0  0  0
   22.7860   11.3350   23.8120 N   0  0  0  0  0  0  0  0  0  0  0  0
   22.7800    9.9140   23.7010 C   0  0  0  0  0  0  0  0  0  0  0  0
   22.9970    9.1110   24.7490 N   0  0  0  0  0  0  0  0  0  0  0  0
   23.0220   12.1410   25.0180 C   0  0  0  0  0  0  0  0  0  0  0  0
   29.1260    9.8230   21.7090 N   0  0  0  0  0  0  0  0  0  0  0  0
   23.4880   10.6920   20.5300 C   0  0  0  0  0  0  0  0  0  0  0  0
   23.2110   10.7890   19.1730 C   0  0  0  0  0  0  0  0  0  0  0  0
   24.2350   10.8650   18.2430 C   0  0  0  0  0  0  0  0  0  0  0  0
   25.5500   10.8410   18.6560 C   0  0  0  0  0  0  0  0  0  0  0  0
   25.8710   10.7460   20.0070 C   0  0  0  0  0  0  0  0  0  0  0  0
   24.8260   10.6610   20.9430 C   0  0  0  0  0  0  0  0  0  0  0  0
   29.8540   10.9130   21.4510 C   0  0  0  0  0  0  0  0  0  0  0  0
   27.8830    9.7800   21.2080 C   0  0  0  0  0  0  0  0  0  0  0  0
   27.3000   10.8010   20.4650 C   0  0  0  0  0  0  0  0  0  0  0  0
   28.0930   11.9190   20.2200 C   0  0  0  0  0  0  0  0  0  0  0  0
   29.3850   11.9780   20.7130 C   0  0  0  0  0  0  0  0  0  0  0  0
    0.0000    0.0000    0.0000 H   0  0  0  0  0  0  0  0  0  0  0  0
    0.0000    0.0000    0.0000 H   0  0  0  0  0  0  0  0  0  0  0  0
    0.0000    0.0000    0.0000 H   0  0  0  0  0  0  0  0  0  0  0  0
    0.0000    0.0000    0.0000 H   0  0  0  0  0  0  0  0  0  0  0  0
    0.0000    0.0000    0.0000 H   0  0  0  0  0  0  0  0  0  0  0  0
    0.0000    0.0000    0.0000 H   0  0  0  0  0  0  0  0  0  0  0  0
    0.0000    0.0000    0.0000 H   0  0  0  0  0  0  0  0  0  0  0  0
    0.0000    0.0000    0.0000 H   0  0  0  0  0  0  0  0  0  0  0  0
    0.0000    0.0000    0.0000 H   0  0  0  0  0  0  0  0  0  0  0  0
    0.0000    0.0000    0.0000 H   0  0  0  0  0  0  0  0  0  0  0  0
    0.0000    0.0000    0.0000 H   0  0  0  0  0  0  0  0  0  0  0  0
    0.0000    0.0000    0.0000 H   0  0  0  0  0  0  0  0  0  0  0  0
    0.0000    0.0000    0.0000 H   0  0  0  0  0  0  0  0  0  0  0  0
   10.9575    5.2327   10.5759 N   0  0  0  0  0  0  0  0  0  0  0  0
   10.5780    3.8153   10.6569 C   0  0  0  0  0  0  0  0  0  0  0  0
   10.5956    5.7164    9.2648 C   0  0  0  0  0  0  0  0  0  0  0  0
   10.8359    3.4167   11.6377 H   0  0  0  0  0  0  0  0  0  0  0  0
    9.4961    3.7964   10.4176 H   0  0  0  0  0  0  0  0  0  0  0  0
   11.1073    3.2592    9.8650 H   0  0  0  0  0  0  0  0  0  0  0  0
   10.1961    6.7525    9.2765 H   0  0  0  0  0  0  0  0  0  0  0  0
   11.5103    5.6691    8.6320 H   0  0  0  0  0  0  0  0  0  0  0  0
    9.8638    5.0138    8.7898 H   0  0  0  0  0  0  0  0  0  0  0  0
  1  3  2  0
  1  4  1  0
  2  4  1  0
  1  5  1  0
  2  6  1  0
  5  6  1  0
  6  7  2  3
  5  8  1  0
  4 10  1  0
 10 11  2  0
 11 12  1  0
 12 13  2  0
 13 14  1  0
 10 15  1  0
 14 15  2  0
  9 16  2  0
  9 17  1  0
 14 18  1  0
 17 18  2  0
 18 19  1  0
 16 20  1  0
 19 20  2  0
  2 21  1  0
  7 22  1  0
  8 23  1  0
  8 24  1  0
  8 25  1  0
 11 26  1  0
 12 27  1  0
 13 28  1  0
 15 29  1  0
 16 30  1  0
 17 31  1  0
 19 32  1  0
 20 33  1  0
 34 35  1  0
 34 36  1  0
 35 37  1  0
 35 38  1  0
 35 39  1  0
 36 40  1  0
 36 41  1  0
 36 42  1  0
  4 34  1  6
M  END
>  <attachment_point>  (19) 
21

>  <score>  (19) 
<NA>

$$$$
4djw
     RDKit          3D

 41 43  0  0  0  0  0  0  0  0999 V2000
   22.4950   11.8750   22.5810 C   0  0  0  0  0  0  0  0  0  0  0  0
   22.5380    9.4930   22.4640 N   0  0  0  0  0  0  0  0  0  0  0  0
   22.3600   13.0630   22.3480 O   0  0  0  0  0  0  0  0  0  0  0  0
   22.3390   10.6680   21.5610 C   0  0  2  0  0  0  0  0  0  0  0  0
   22.7860   11.3350   23.8120 N   0  0  0  0  0  0  0  0  0  0  0  0
   22.7800    9.9140   23.7010 C   0  0  0  0  0  0  0  0  0  0  0  0
   22.9970    9.1110   24.7490 N   0  0  0  0  0  0  0  0  0  0  0  0
   23.0220   12.1410   25.0180 C   0  0  0  0  0  0  0  0  0  0  0  0
   29.1260    9.8230   21.7090 N   0  0  0  0  0  0  0  0  0  0  0  0
   23.4880   10.6920   20.5300 C   0  0  0  0  0  0  0  0  0  0  0  0
   23.2110   10.7890   19.1730 C   0  0  0  0  0  0  0  0  0  0  0  0
   24.2350   10.8650   18.2430 C   0  0  0  0  0  0  0  0  0  0  0  0
   25.5500   10.8410   18.6560 C   0  0  0  0  0  0  0  0  0  0  0  0
   25.8710   10.7460   20.0070 C   0  0  0  0  0  0  0  0  0  0  0  0
   24.8260   10.6610   20.9430 C   0  0  0  0  0  0  0  0  0  0  0  0
   29.8540   10.9130   21.4510 C   0  0  0  0  0  0  0  0  0  0  0  0
   27.8830    9.7800   21.2080 C   0  0  0  0  0  0  0  0  0  0  0  0
   27.3000   10.8010   20.4650 C   0  0  0  0  0  0  0  0  0  0  0  0
   28.0930   11.9190   20.2200 C   0  0  0  0  0  0  0  0  0  0  0  0
   29.3850   11.9780   20.7130 C   0  0  0  0  0  0  0  0  0  0  0  0
    0.0000    0.0000    0.0000 H   0  0  0  0  0  0  0  0  0  0  0  0
    0.0000    0.0000    0.0000 H   0  0  0  0  0  0  0  0  0  0  0  0
    0.0000    0.0000    0.0000 H   0  0  0  0  0  0  0  0  0  0  0  0
    0.0000    0.0000    0.0000 H   0  0  0  0  0  0  0  0  0  0  0  0
    0.0000    0.0000    0.0000 H   0  0  0  0  0  0  0  0  0  0  0  0
    0.0000    0.0000    0.0000 H   0  0  0  0  0  0  0  0  0  0  0  0
    0.0000    0.0000    0.0000 H   0  0  0  0  0  0  0  0  0  0  0  0
    0.0000    0.0000    0.0000 H   0  0  0  0  0  0  0  0  0  0  0  0
    0.0000    0.0000    0.0000 H   0  0  0  0  0  0  0  0  0  0  0  0
    0.0000    0.0000    0.0000 H   0  0  0  0  0  0  0  0  0  0  0  0
    0.0000    0.0000    0.0000 H   0  0  0  0  0  0  0  0  0  0  0  0
    0.0000    0.0000    0.0000 H   0  0  0  0  0  0  0  0  0  0  0  0
    0.0000    0.0000    0.0000 H   0  0  0  0  0  0  0  0  0  0  0  0
   10.9395    5.2242   10.5585 O   0  0  0  0  0  0  0  0  0  0  0  0
   11.1601    3.9136   10.1169 C   0  0  0  0  0  0  0  0  0  0  0  0
   10.0766    3.5096    9.1219 C   0  0  0  0  0  0  0  0  0  0  0  0
   11.0186    3.2235   10.9945 H   0  0  0  0  0  0  0  0  0  0  0  0
   12.1726    3.7710    9.7138 H   0  0  0  0  0  0  0  0  0  0  0  0
   10.3136    3.8165    8.0966 H   0  0  0  0  0  0  0  0  0  0  0  0
    9.1687    4.0930    9.4280 H   0  0  0  0  0  0  0  0  0  0  0  0
    9.9078    2.4136    9.1811 H   0  0  0  0  0  0  0  0  0  0  0  0
  1  3  2  0
  1  4  1  0
  2  4  1  0
  1  5  1  0
  2  6  1  0
  5  6  1  0
  6  7  2  3
  5  8  1  0
  4 10  1  0
 10 11  2  0
 11 12  1  0
 12 13  2  0
 13 14  1  0
 10 15  1  0
 14 15  2  0
  9 16  2  0
  9 17  1  0
 14 18  1  0
 17 18  2  0
 18 19  1  0
 16 20  1  0
 19 20  2  0
  2 21  1  0
  7 22  1  0
  8 23  1  0
  8 24  1  0
  8 25  1  0
 11 26  1  0
 12 27  1  0
 13 28  1  0
 15 29  1  0
 16 30  1  0
 17 31  1  0
 19 32  1  0
 20 33  1  0
 34 35  1  0
 35 36  1  0
 35 37  1  0
 35 38  1  0
 36 39  1  0
 36 40  1  0
 36 41  1  0
  4 34  1  6
M  END
>  <attachment_point>  (20) 
21

>  <score>  (20) 
<NA>

$$$$
4djw
     RDKit          3D

 38 40  0  0  0  0  0  0  0  0999 V2000
   22.4950   11.8750   22.5810 C   0  0  0  0  0  0  0  0  0  0  0  0
   22.5380    9.4930   22.4640 N   0  0  0  0  0  0  0  0  0  0  0  0
   22.3600   13.0630   22.3480 O   0  0  0  0  0  0  0  0  0  0  0  0
   22.3390   10.6680   21.5610 C   0  0  2  0  0  0  0  0  0  0  0  0
   22.7860   11.3350   23.8120 N   0  0  0  0  0  0  0  0  0  0  0  0
   22.7800    9.9140   23.7010 C   0  0  0  0  0  0  0  0  0  0  0  0
   22.9970    9.1110   24.7490 N   0  0  0  0  0  0  0  0  0  0  0  0
   23.0220   12.1410   25.0180 C   0  0  0  0  0  0  0  0  0  0  0  0
   29.1260    9.8230   21.7090 N   0  0  0  0  0  0  0  0  0  0  0  0
   23.4880   10.6920   20.5300 C   0  0  0  0  0  0  0  0  0  0  0  0
   23.2110   10.7890   19.1730 C   0  0  0  0  0  0  0  0  0  0  0  0
   24.2350   10.8650   18.2430 C   0  0  0  0  0  0  0  0  0  0  0  0
   25.5500   10.8410   18.6560 C   0  0  0  0  0  0  0  0  0  0  0  0
   25.8710   10.7460   20.0070 C   0  0  0  0  0  0  0  0  0  0  0  0
   24.8260   10.6610   20.9430 C   0  0  0  0  0  0  0  0  0  0  0  0
   29.8540   10.9130   21.4510 C   0  0  0  0  0  0  0  0  0  0  0  0
   27.8830    9.7800   21.2080 C   0  0  0  0  0  0  0  0  0  0  0  0
   27.3000   10.8010   20.4650 C   0  0  0  0  0  0  0  0  0  0  0  0
   28.0930   11.9190   20.2200 C   0  0  0  0  0  0  0  0  0  0  0  0
   29.3850   11.9780   20.7130 C   0  0  0  0  0  0  0  0  0  0  0  0
    0.0000    0.0000    0.0000 H   0  0  0  0  0  0  0  0  0  0  0  0
    0.0000    0.0000    0.0000 H   0  0  0  0  0  0  0  0  0  0  0  0
    0.0000    0.0000    0.0000 H   0  0  0  0  0  0  0  0  0  0  0  0
    0.0000    0.0000    0.0000 H   0  0  0  0  0  0  0  0  0  0  0  0
    0.0000    0.0000    0.0000 H   0  0  0  0  0  0  0  0  0  0  0  0
    0.0000    0.0000    0.0000 H   0  0  0  0  0  0  0  0  0  0  0  0
    0.0000    0.0000    0.0000 H   0  0  0  0  0  0  0  0  0  0  0  0
    0.0000    0.0000    0.0000 H   0  0  0  0  0  0  0  0  0  0  0  0
    0.0000    0.0000    0.0000 H   0  0  0  0  0  0  0  0  0  0  0  0
    0.0000    0.0000    0.0000 H   0  0  0  0  0  0  0  0  0  0  0  0
    0.0000    0.0000    0.0000 H   0  0  0  0  0  0  0  0  0  0  0  0
    0.0000    0.0000    0.0000 H   0  0  0  0  0  0  0  0  0  0  0  0
    0.0000    0.0000    0.0000 H   0  0  0  0  0  0  0  0  0  0  0  0
   10.8675    5.1898   10.4890 C   0  0  0  0  0  0  0  0  0  0  0  0
    9.5179    5.2489   10.8456 N   0  0  0  0  0  0  0  0  0  0  0  0
   11.3437    4.7711    9.4251 O   0  0  0  0  0  0  0  0  0  0  0  0
    9.0591    6.1594   11.0027 H   0  0  0  0  0  0  0  0  0  0  0  0
    8.9711    4.3804   10.9542 H   0  0  0  0  0  0  0  0  0  0  0  0
  1  3  2  0
  1  4  1  0
  2  4  1  0
  1  5  1  0
  2  6  1  0
  5  6  1  0
  6  7  2  3
  5  8  1  0
  4 10  1  0
 10 11  2  0
 11 12  1  0
 12 13  2  0
 13 14  1  0
 10 15  1  0
 14 15  2  0
  9 16  2  0
  9 17  1  0
 14 18  1  0
 17 18  2  0
 18 19  1  0
 16 20  1  0
 19 20  2  0
  2 21  1  0
  7 22  1  0
  8 23  1  0
  8 24  1  0
  8 25  1  0
 11 26  1  0
 12 27  1  0
 13 28  1  0
 15 29  1  0
 16 30  1  0
 17 31  1  0
 19 32  1  0
 20 33  1  0
 34 35  1  0
 34 36  2  0
 35 37  1  0
 35 38  1  0
  4 34  1  6
M  END
>  <attachment_point>  (21) 
21

>  <score>  (21) 
<NA>

$$$$
4djw
     RDKit          3D

 38 40  0  0  0  0  0  0  0  0999 V2000
   22.4950   11.8750   22.5810 C   0  0  0  0  0  0  0  0  0  0  0  0
   22.5380    9.4930   22.4640 N   0  0  0  0  0  0  0  0  0  0  0  0
   22.3600   13.0630   22.3480 O   0  0  0  0  0  0  0  0  0  0  0  0
   22.3390   10.6680   21.5610 C   0  0  2  0  0  0  0  0  0  0  0  0
   22.7860   11.3350   23.8120 N   0  0  0  0  0  0  0  0  0  0  0  0
   22.7800    9.9140   23.7010 C   0  0  0  0  0  0  0  0  0  0  0  0
   22.9970    9.1110   24.7490 N   0  0  0  0  0  0  0  0  0  0  0  0
   23.0220   12.1410   25.0180 C   0  0  0  0  0  0  0  0  0  0  0  0
   29.1260    9.8230   21.7090 N   0  0  0  0  0  0  0  0  0  0  0  0
   23.4880   10.6920   20.5300 C   0  0  0  0  0  0  0  0  0  0  0  0
   23.2110   10.7890   19.1730 C   0  0  0  0  0  0  0  0  0  0  0  0
   24.2350   10.8650   18.2430 C   0  0  0  0  0  0  0  0  0  0  0  0
   25.5500   10.8410   18.6560 C   0  0  0  0  0  0  0  0  0  0  0  0
   25.8710   10.7460   20.0070 C   0  0  0  0  0  0  0  0  0  0  0  0
   24.8260   10.6610   20.9430 C   0  0  0  0  0  0  0  0  0  0  0  0
   29.8540   10.9130   21.4510 C   0  0  0  0  0  0  0  0  0  0  0  0
   27.8830    9.7800   21.2080 C   0  0  0  0  0  0  0  0  0  0  0  0
   27.3000   10.8010   20.4650 C   0  0  0  0  0  0  0  0  0  0  0  0
   28.0930   11.9190   20.2200 C   0  0  0  0  0  0  0  0  0  0  0  0
   29.3850   11.9780   20.7130 C   0  0  0  0  0  0  0  0  0  0  0  0
    0.0000    0.0000    0.0000 H   0  0  0  0  0  0  0  0  0  0  0  0
    0.0000    0.0000    0.0000 H   0  0  0  0  0  0  0  0  0  0  0  0
    0.0000    0.0000    0.0000 H   0  0  0  0  0  0  0  0  0  0  0  0
    0.0000    0.0000    0.0000 H   0  0  0  0  0  0  0  0  0  0  0  0
    0.0000    0.0000    0.0000 H   0  0  0  0  0  0  0  0  0  0  0  0
    0.0000    0.0000    0.0000 H   0  0  0  0  0  0  0  0  0  0  0  0
    0.0000    0.0000    0.0000 H   0  0  0  0  0  0  0  0  0  0  0  0
    0.0000    0.0000    0.0000 H   0  0  0  0  0  0  0  0  0  0  0  0
    0.0000    0.0000    0.0000 H   0  0  0  0  0  0  0  0  0  0  0  0
    0.0000    0.0000    0.0000 H   0  0  0  0  0  0  0  0  0  0  0  0
    0.0000    0.0000    0.0000 H   0  0  0  0  0  0  0  0  0  0  0  0
    0.0000    0.0000    0.0000 H   0  0  0  0  0  0  0  0  0  0  0  0
    0.0000    0.0000    0.0000 H   0  0  0  0  0  0  0  0  0  0  0  0
   10.9118    5.2110   10.5318 C   0  0  0  0  0  0  0  0  0  0  0  0
   11.2184    5.6714    9.2348 O   0  0  0  0  0  0  0  0  0  0  0  0
   10.8231    4.0984   10.4363 H   0  0  0  0  0  0  0  0  0  0  0  0
    9.8765    5.5619   10.7704 H   0  0  0  0  0  0  0  0  0  0  0  0
   10.6824    5.1250    8.5972 H   0  0  0  0  0  0  0  0  0  0  0  0
  1  3  2  0
  1  4  1  0
  2  4  1  0
  1  5  1  0
  2  6  1  0
  5  6  1  0
  6  7  2  3
  5  8  1  0
  4 10  1  0
 10 11  2  0
 11 12  1  0
 12 13  2  0
 13 14  1  0
 10 15  1  0
 14 15  2  0
  9 16  2  0
  9 17  1  0
 14 18  1  0
 17 18  2  0
 18 19  1  0
 16 20  1  0
 19 20  2  0
  2 21  1  0
  7 22  1  0
  8 23  1  0
  8 24  1  0
  8 25  1  0
 11 26  1  0
 12 27  1  0
 13 28  1  0
 15 29  1  0
 16 30  1  0
 17 31  1  0
 19 32  1  0
 20 33  1  0
 34 35  1  0
 34 36  1  0
 34 37  1  0
 35 38  1  0
  4 34  1  6
M  END
>  <attachment_point>  (22) 
21

>  <score>  (22) 
<NA>

$$$$
4djw
     RDKit          3D

 47 50  0  0  0  0  0  0  0  0999 V2000
   22.4950   11.8750   22.5810 C   0  0  0  0  0  0  0  0  0  0  0  0
   22.5380    9.4930   22.4640 N   0  0  0  0  0  0  0  0  0  0  0  0
   22.3600   13.0630   22.3480 O   0  0  0  0  0  0  0  0  0  0  0  0
   22.3390   10.6680   21.5610 C   0  0  2  0  0  0  0  0  0  0  0  0
   22.7860   11.3350   23.8120 N   0  0  0  0  0  0  0  0  0  0  0  0
   22.7800    9.9140   23.7010 C   0  0  0  0  0  0  0  0  0  0  0  0
   22.9970    9.1110   24.7490 N   0  0  0  0  0  0  0  0  0  0  0  0
   23.0220   12.1410   25.0180 C   0  0  0  0  0  0  0  0  0  0  0  0
   29.1260    9.8230   21.7090 N   0  0  0  0  0  0  0  0  0  0  0  0
   23.4880   10.6920   20.5300 C   0  0  0  0  0  0  0  0  0  0  0  0
   23.2110   10.7890   19.1730 C   0  0  0  0  0  0  0  0  0  0  0  0
   24.2350   10.8650   18.2430 C   0  0  0  0  0  0  0  0  0  0  0  0
   25.5500   10.8410   18.6560 C   0  0  0  0  0  0  0  0  0  0  0  0
   25.8710   10.7460   20.0070 C   0  0  0  0  0  0  0  0  0  0  0  0
   24.8260   10.6610   20.9430 C   0  0  0  0  0  0  0  0  0  0  0  0
   29.8540   10.9130   21.4510 C   0  0  0  0  0  0  0  0  0  0  0  0
   27.8830    9.7800   21.2080 C   0  0  0  0  0  0  0  0  0  0  0  0
   27.3000   10.8010   20.4650 C   0  0  0  0  0  0  0  0  0  0  0  0
   28.0930   11.9190   20.2200 C   0  0  0  0  0  0  0  0  0  0  0  0
   29.3850   11.9780   20.7130 C   0  0  0  0  0  0  0  0  0  0  0  0
    0.0000    0.0000    0.0000 H   0  0  0  0  0  0  0  0  0  0  0  0
    0.0000    0.0000    0.0000 H   0  0  0  0  0  0  0  0  0  0  0  0
    0.0000    0.0000    0.0000 H   0  0  0  0  0  0  0  0  0  0  0  0
    0.0000    0.0000    0.0000 H   0  0  0  0  0  0  0  0  0  0  0  0
    0.0000    0.0000    0.0000 H   0  0  0  0  0  0  0  0  0  0  0  0
    0.0000    0.0000    0.0000 H   0  0  0  0  0  0  0  0  0  0  0  0
    0.0000    0.0000    0.0000 H   0  0  0  0  0  0  0  0  0  0  0  0
    0.0000    0.0000    0.0000 H   0  0  0  0  0  0  0  0  0  0  0  0
    0.0000    0.0000    0.0000 H   0  0  0  0  0  0  0  0  0  0  0  0
    0.0000    0.0000    0.0000 H   0  0  0  0  0  0  0  0  0  0  0  0
    0.0000    0.0000    0.0000 H   0  0  0  0  0  0  0  0  0  0  0  0
    0.0000    0.0000    0.0000 H   0  0  0  0  0  0  0  0  0  0  0  0
    0.0000    0.0000    0.0000 H   0  0  0  0  0  0  0  0  0  0  0  0
   10.9653    5.2365   10.5834 N   0  0  0  0  0  0  0  0  0  0  0  0
   10.2320    6.0726    9.6202 C   0  0  0  0  0  0  0  0  0  0  0  0
    8.8473    6.2572   10.2001 C   0  0  0  0  0  0  0  0  0  0  0  0
    8.7954    5.8909   11.5534 O   0  0  0  0  0  0  0  0  0  0  0  0
    8.9394    4.4896   11.5928 C   0  0  0  0  0  0  0  0  0  0  0  0
   10.1138    4.0451   10.7385 C   0  0  0  0  0  0  0  0  0  0  0  0
   10.7501    7.0136    9.4108 H   0  0  0  0  0  0  0  0  0  0  0  0
   10.1956    5.4364    8.6874 H   0  0  0  0  0  0  0  0  0  0  0  0
    8.5162    7.3087   10.0999 H   0  0  0  0  0  0  0  0  0  0  0  0
    8.1457    5.5615    9.6781 H   0  0  0  0  0  0  0  0  0  0  0  0
    7.9990    4.0415   11.1806 H   0  0  0  0  0  0  0  0  0  0  0  0
    9.0678    4.1549   12.6539 H   0  0  0  0  0  0  0  0  0  0  0  0
    9.7661    3.7931    9.7108 H   0  0  0  0  0  0  0  0  0  0  0  0
   10.6993    3.2422   11.1870 H   0  0  0  0  0  0  0  0  0  0  0  0
  1  3  2  0
  1  4  1  0
  2  4  1  0
  1  5  1  0
  2  6  1  0
  5  6  1  0
  6  7  2  3
  5  8  1  0
  4 10  1  0
 10 11  2  0
 11 12  1  0
 12 13  2  0
 13 14  1  0
 10 15  1  0
 14 15  2  0
  9 16  2  0
  9 17  1  0
 14 18  1  0
 17 18  2  0
 18 19  1  0
 16 20  1  0
 19 20  2  0
  2 21  1  0
  7 22  1  0
  8 23  1  0
  8 24  1  0
  8 25  1  0
 11 26  1  0
 12 27  1  0
 13 28  1  0
 15 29  1  0
 16 30  1  0
 17 31  1  0
 19 32  1  0
 20 33  1  0
 34 35  1  0
 35 36  1  0
 36 37  1  0
 37 38  1  0
 38 39  1  0
 39 34  1  0
 35 40  1  0
 35 41  1  0
 36 42  1  0
 36 43  1  0
 38 44  1  0
 38 45  1  0
 39 46  1  0
 39 47  1  0
  4 34  1  6
M  END
>  <attachment_point>  (23) 
21

>  <score>  (23) 
<NA>

$$$$
4djw
     RDKit          3D

 36 38  0  0  0  0  0  0  0  0999 V2000
   22.4950   11.8750   22.5810 C   0  0  0  0  0  0  0  0  0  0  0  0
   22.5380    9.4930   22.4640 N   0  0  0  0  0  0  0  0  0  0  0  0
   22.3600   13.0630   22.3480 O   0  0  0  0  0  0  0  0  0  0  0  0
   22.3390   10.6680   21.5610 C   0  0  2  0  0  0  0  0  0  0  0  0
   22.7860   11.3350   23.8120 N   0  0  0  0  0  0  0  0  0  0  0  0
   22.7800    9.9140   23.7010 C   0  0  0  0  0  0  0  0  0  0  0  0
   22.9970    9.1110   24.7490 N   0  0  0  0  0  0  0  0  0  0  0  0
   23.0220   12.1410   25.0180 C   0  0  0  0  0  0  0  0  0  0  0  0
   29.1260    9.8230   21.7090 N   0  0  0  0  0  0  0  0  0  0  0  0
   23.4880   10.6920   20.5300 C   0  0  0  0  0  0  0  0  0  0  0  0
   23.2110   10.7890   19.1730 C   0  0  0  0  0  0  0  0  0  0  0  0
   24.2350   10.8650   18.2430 C   0  0  0  0  0  0  0  0  0  0  0  0
   25.5500   10.8410   18.6560 C   0  0  0  0  0  0  0  0  0  0  0  0
   25.8710   10.7460   20.0070 C   0  0  0  0  0  0  0  0  0  0  0  0
   24.8260   10.6610   20.9430 C   0  0  0  0  0  0  0  0  0  0  0  0
   29.8540   10.9130   21.4510 C   0  0  0  0  0  0  0  0  0  0  0  0
   27.8830    9.7800   21.2080 C   0  0  0  0  0  0  0  0  0  0  0  0
   27.3000   10.8010   20.4650 C   0  0  0  0  0  0  0  0  0  0  0  0
   28.0930   11.9190   20.2200 C   0  0  0  0  0  0  0  0  0  0  0  0
   29.3850   11.9780   20.7130 C   0  0  0  0  0  0  0  0  0  0  0  0
    0.0000    0.0000    0.0000 H   0  0  0  0  0  0  0  0  0  0  0  0
    0.0000    0.0000    0.0000 H   0  0  0  0  0  0  0  0  0  0  0  0
    0.0000    0.0000    0.0000 H   0  0  0  0  0  0  0  0  0  0  0  0
    0.0000    0.0000    0.0000 H   0  0  0  0  0  0  0  0  0  0  0  0
    0.0000    0.0000    0.0000 H   0  0  0  0  0  0  0  0  0  0  0  0
    0.0000    0.0000    0.0000 H   0  0  0  0  0  0  0  0  0  0  0  0
    0.0000    0.0000    0.0000 H   0  0  0  0  0  0  0  0  0  0  0  0
    0.0000    0.0000    0.0000 H   0  0  0  0  0  0  0  0  0  0  0  0
    0.0000    0.0000    0.0000 H   0  0  0  0  0  0  0  0  0  0  0  0
    0.0000    0.0000    0.0000 H   0  0  0  0  0  0  0  0  0  0  0  0
    0.0000    0.0000    0.0000 H   0  0  0  0  0  0  0  0  0  0  0  0
    0.0000    0.0000    0.0000 H   0  0  0  0  0  0  0  0  0  0  0  0
    0.0000    0.0000    0.0000 H   0  0  0  0  0  0  0  0  0  0  0  0
   10.8840    5.1976   10.5049 N   0  0  0  0  0  4  0  0  0  0  0  0
   10.8688    4.0328   10.1140 O   0  0  0  0  0  0  0  0  0  0  0  0
    9.9345    6.0579   10.0156 O   0  0  0  0  0  1  0  0  0  0  0  0
  1  3  2  0
  1  4  1  0
  2  4  1  0
  1  5  1  0
  2  6  1  0
  5  6  1  0
  6  7  2  3
  5  8  1  0
  4 10  1  0
 10 11  2  0
 11 12  1  0
 12 13  2  0
 13 14  1  0
 10 15  1  0
 14 15  2  0
  9 16  2  0
  9 17  1  0
 14 18  1  0
 17 18  2  0
 18 19  1  0
 16 20  1  0
 19 20  2  0
  2 21  1  0
  7 22  1  0
  8 23  1  0
  8 24  1  0
  8 25  1  0
 11 26  1  0
 12 27  1  0
 13 28  1  0
 15 29  1  0
 16 30  1  0
 17 31  1  0
 19 32  1  0
 20 33  1  0
 34 35  2  0
 34 36  1  0
  4 34  1  6
M  CHG  2  34   1  36  -1
M  END
>  <attachment_point>  (24) 
21

>  <score>  (24) 
<NA>

$$$$
4djw
     RDKit          3D

 46 48  0  0  0  0  0  0  0  0999 V2000
   22.4950   11.8750   22.5810 C   0  0  0  0  0  0  0  0  0  0  0  0
   22.5380    9.4930   22.4640 N   0  0  0  0  0  0  0  0  0  0  0  0
   22.3600   13.0630   22.3480 O   0  0  0  0  0  0  0  0  0  0  0  0
   22.3390   10.6680   21.5610 C   0  0  2  0  0  0  0  0  0  0  0  0
   22.7860   11.3350   23.8120 N   0  0  0  0  0  0  0  0  0  0  0  0
   22.7800    9.9140   23.7010 C   0  0  0  0  0  0  0  0  0  0  0  0
   22.9970    9.1110   24.7490 N   0  0  0  0  0  0  0  0  0  0  0  0
   23.0220   12.1410   25.0180 C   0  0  0  0  0  0  0  0  0  0  0  0
   29.1260    9.8230   21.7090 N   0  0  0  0  0  0  0  0  0  0  0  0
   23.4880   10.6920   20.5300 C   0  0  0  0  0  0  0  0  0  0  0  0
   23.2110   10.7890   19.1730 C   0  0  0  0  0  0  0  0  0  0  0  0
   24.2350   10.8650   18.2430 C   0  0  0  0  0  0  0  0  0  0  0  0
   25.5500   10.8410   18.6560 C   0  0  0  0  0  0  0  0  0  0  0  0
   25.8710   10.7460   20.0070 C   0  0  0  0  0  0  0  0  0  0  0  0
   24.8260   10.6610   20.9430 C   0  0  0  0  0  0  0  0  0  0  0  0
   29.8540   10.9130   21.4510 C   0  0  0  0  0  0  0  0  0  0  0  0
   27.8830    9.7800   21.2080 C   0  0  0  0  0  0  0  0  0  0  0  0
   27.3000   10.8010   20.4650 C   0  0  0  0  0  0  0  0  0  0  0  0
   28.0930   11.9190   20.2200 C   0  0  0  0  0  0  0  0  0  0  0  0
   29.3850   11.9780   20.7130 C   0  0  0  0  0  0  0  0  0  0  0  0
    0.0000    0.0000    0.0000 H   0  0  0  0  0  0  0  0  0  0  0  0
    0.0000    0.0000    0.0000 H   0  0  0  0  0  0  0  0  0  0  0  0
    0.0000    0.0000    0.0000 H   0  0  0  0  0  0  0  0  0  0  0  0
    0.0000    0.0000    0.0000 H   0  0  0  0  0  0  0  0  0  0  0  0
    0.0000    0.0000    0.0000 H   0  0  0  0  0  0  0  0  0  0  0  0
    0.0000    0.0000    0.0000 H   0  0  0  0  0  0  0  0  0  0  0  0
    0.0000    0.0000    0.0000 H   0  0  0  0  0  0  0  0  0  0  0  0
    0.0000    0.0000    0.0000 H   0  0  0  0  0  0  0  0  0  0  0  0
    0.0000    0.0000    0.0000 H   0  0  0  0  0  0  0  0  0  0  0  0
    0.0000    0.0000    0.0000 H   0  0  0  0  0  0  0  0  0  0  0  0
    0.0000    0.0000    0.0000 H   0  0  0  0  0  0  0  0  0  0  0  0
    0.0000    0.0000    0.0000 H   0  0  0  0  0  0  0  0  0  0  0  0
    0.0000    0.0000    0.0000 H   0  0  0  0  0  0  0  0  0  0  0  0
   10.8534    5.1830   10.4754 C   0  0  0  0  0  0  0  0  0  0  0  0
    9.7545    4.6721   11.3556 C   0  0  0  0  0  0  0  0  0  0  0  0
   11.5823    4.1091    9.7332 C   0  0  0  0  0  0  0  0  0  0  0  0
   10.4775    6.3617    9.6512 C   0  0  0  0  0  0  0  0  0  0  0  0
    9.0938    3.9630   10.8324 H   0  0  0  0  0  0  0  0  0  0  0  0
    9.2092    5.5664   11.7500 H   0  0  0  0  0  0  0  0  0  0  0  0
   10.1548    4.1608   12.2731 H   0  0  0  0  0  0  0  0  0  0  0  0
   11.8442    3.3133   10.4645 H   0  0  0  0  0  0  0  0  0  0  0  0
   12.5586    4.5182    9.3714 H   0  0  0  0  0  0  0  0  0  0  0  0
   10.9575    3.7441    8.8992 H   0  0  0  0  0  0  0  0  0  0  0  0
   11.1290    6.4650    8.7632 H   0  0  0  0  0  0  0  0  0  0  0  0
   10.4816    7.3262   10.2237 H   0  0  0  0  0  0  0  0  0  0  0  0
    9.4302    6.2358    9.2960 H   0  0  0  0  0  0  0  0  0  0  0  0
  1  3  2  0
  1  4  1  0
  2  4  1  0
  1  5  1  0
  2  6  1  0
  5  6  1  0
  6  7  2  3
  5  8  1  0
  4 10  1  0
 10 11  2  0
 11 12  1  0
 12 13  2  0
 13 14  1  0
 10 15  1  0
 14 15  2  0
  9 16  2  0
  9 17  1  0
 14 18  1  0
 17 18  2  0
 18 19  1  0
 16 20  1  0
 19 20  2  0
  2 21  1  0
  7 22  1  0
  8 23  1  0
  8 24  1  0
  8 25  1  0
 11 26  1  0
 12 27  1  0
 13 28  1  0
 15 29  1  0
 16 30  1  0
 17 31  1  0
 19 32  1  0
 20 33  1  0
 34 35  1  0
 34 36  1  0
 34 37  1  0
 35 38  1  0
 35 39  1  0
 35 40  1  0
 36 41  1  0
 36 42  1  0
 36 43  1  0
 37 44  1  0
 37 45  1  0
 37 46  1  0
  4 34  1  6
M  END
>  <attachment_point>  (25) 
21

>  <score>  (25) 
<NA>

$$$$
4djw
     RDKit          3D

 48 51  0  0  0  0  0  0  0  0999 V2000
   22.4950   11.8750   22.5810 C   0  0  0  0  0  0  0  0  0  0  0  0
   22.5380    9.4930   22.4640 N   0  0  0  0  0  0  0  0  0  0  0  0
   22.3600   13.0630   22.3480 O   0  0  0  0  0  0  0  0  0  0  0  0
   22.3390   10.6680   21.5610 C   0  0  2  0  0  0  0  0  0  0  0  0
   22.7860   11.3350   23.8120 N   0  0  0  0  0  0  0  0  0  0  0  0
   22.7800    9.9140   23.7010 C   0  0  0  0  0  0  0  0  0  0  0  0
   22.9970    9.1110   24.7490 N   0  0  0  0  0  0  0  0  0  0  0  0
   23.0220   12.1410   25.0180 C   0  0  0  0  0  0  0  0  0  0  0  0
   29.1260    9.8230   21.7090 N   0  0  0  0  0  0  0  0  0  0  0  0
   23.4880   10.6920   20.5300 C   0  0  0  0  0  0  0  0  0  0  0  0
   23.2110   10.7890   19.1730 C   0  0  0  0  0  0  0  0  0  0  0  0
   24.2350   10.8650   18.2430 C   0  0  0  0  0  0  0  0  0  0  0  0
   25.5500   10.8410   18.6560 C   0  0  0  0  0  0  0  0  0  0  0  0
   25.8710   10.7460   20.0070 C   0  0  0  0  0  0  0  0  0  0  0  0
   24.8260   10.6610   20.9430 C   0  0  0  0  0  0  0  0  0  0  0  0
   29.8540   10.9130   21.4510 C   0  0  0  0  0  0  0  0  0  0  0  0
   27.8830    9.7800   21.2080 C   0  0  0  0  0  0  0  0  0  0  0  0
   27.3000   10.8010   20.4650 C   0  0  0  0  0  0  0  0  0  0  0  0
   28.0930   11.9190   20.2200 C   0  0  0  0  0  0  0  0  0  0  0  0
   29.3850   11.9780   20.7130 C   0  0  0  0  0  0  0  0  0  0  0  0
    0.0000    0.0000    0.0000 H   0  0  0  0  0  0  0  0  0  0  0  0
    0.0000    0.0000    0.0000 H   0  0  0  0  0  0  0  0  0  0  0  0
    0.0000    0.0000    0.0000 H   0  0  0  0  0  0  0  0  0  0  0  0
    0.0000    0.0000    0.0000 H   0  0  0  0  0  0  0  0  0  0  0  0
    0.0000    0.0000    0.0000 H   0  0  0  0  0  0  0  0  0  0  0  0
    0.0000    0.0000    0.0000 H   0  0  0  0  0  0  0  0  0  0  0  0
    0.0000    0.0000    0.0000 H   0  0  0  0  0  0  0  0  0  0  0  0
    0.0000    0.0000    0.0000 H   0  0  0  0  0  0  0  0  0  0  0  0
    0.0000    0.0000    0.0000 H   0  0  0  0  0  0  0  0  0  0  0  0
    0.0000    0.0000    0.0000 H   0  0  0  0  0  0  0  0  0  0  0  0
    0.0000    0.0000    0.0000 H   0  0  0  0  0  0  0  0  0  0  0  0
    0.0000    0.0000    0.0000 H   0  0  0  0  0  0  0  0  0  0  0  0
    0.0000    0.0000    0.0000 H   0  0  0  0  0  0  0  0  0  0  0  0
   10.8814    5.1964   10.5025 C   0  0  0  0  0  0  0  0  0  0  0  0
   11.1942    4.7280    9.2444 C   0  0  0  0  0  0  0  0  0  0  0  0
   10.1788    4.2943    8.3937 C   0  0  0  0  0  0  0  0  0  0  0  0
    8.8554    4.3192    8.7749 C   0  0  0  0  0  0  0  0  0  0  0  0
    7.8622    3.8772    7.8976 O   0  0  0  0  0  0  0  0  0  0  0  0
    8.1408    3.3975    6.6195 C   0  0  0  0  0  0  0  0  0  0  0  0
    8.5343    4.7846   10.0270 C   0  0  0  0  0  0  0  0  0  0  0  0
    9.5496    5.2142   10.8676 C   0  0  0  0  0  0  0  0  0  0  0  0
   12.2212    4.6929    8.9089 H   0  0  0  0  0  0  0  0  0  0  0  0
   10.4373    3.9301    7.4118 H   0  0  0  0  0  0  0  0  0  0  0  0
    8.4593    4.1654    5.8960 H   0  0  0  0  0  0  0  0  0  0  0  0
    8.9916    2.6735    6.7032 H   0  0  0  0  0  0  0  0  0  0  0  0
    7.2541    2.8525    6.2444 H   0  0  0  0  0  0  0  0  0  0  0  0
    7.4926    4.7948   10.3032 H   0  0  0  0  0  0  0  0  0  0  0  0
    9.2820    5.5741   11.8407 H   0  0  0  0  0  0  0  0  0  0  0  0
  1  3  2  0
  1  4  1  0
  2  4  1  0
  1  5  1  0
  2  6  1  0
  5  6  1  0
  6  7  2  3
  5  8  1  0
  4 10  1  6
 10 11  2  0
 11 12  1  0
 12 13  2  0
 13 14  1  0
 10 15  1  0
 14 15  2  0
  9 16  2  0
  9 17  1  0
 14 18  1  0
 17 18  2  0
 18 19  1  0
 16 20  1  0
 19 20  2  0
  2 21  1  0
  7 22  1  0
  8 23  1  0
  8 24  1  0
  8 25  1  0
 11 26  1  0
 12 27  1  0
 13 28  1  0
 15 29  1  0
 16 30  1  0
 17 31  1  0
 19 32  1  0
 20 33  1  0
 34 35  2  0
 35 36  1  0
 36 37  2  0
 37 38  1  0
 38 39  1  0
 37 40  1  0
 40 41  2  0
 41 34  1  0
 35 42  1  0
 36 43  1  0
 39 44  1  0
 39 45  1  0
 39 46  1  0
 40 47  1  0
 41 48  1  0
  4 34  1  0
M  END
>  <attachment_point>  (26) 
21

>  <score>  (26) 
<NA>

$$$$
4djw
     RDKit          3D

 44 47  0  0  0  0  0  0  0  0999 V2000
   22.4950   11.8750   22.5810 C   0  0  0  0  0  0  0  0  0  0  0  0
   22.5380    9.4930   22.4640 N   0  0  0  0  0  0  0  0  0  0  0  0
   22.3600   13.0630   22.3480 O   0  0  0  0  0  0  0  0  0  0  0  0
   22.3390   10.6680   21.5610 C   0  0  2  0  0  0  0  0  0  0  0  0
   22.7860   11.3350   23.8120 N   0  0  0  0  0  0  0  0  0  0  0  0
   22.7800    9.9140   23.7010 C   0  0  0  0  0  0  0  0  0  0  0  0
   22.9970    9.1110   24.7490 N   0  0  0  0  0  0  0  0  0  0  0  0
   23.0220   12.1410   25.0180 C   0  0  0  0  0  0  0  0  0  0  0  0
   29.1260    9.8230   21.7090 N   0  0  0  0  0  0  0  0  0  0  0  0
   23.4880   10.6920   20.5300 C   0  0  0  0  0  0  0  0  0  0  0  0
   23.2110   10.7890   19.1730 C   0  0  0  0  0  0  0  0  0  0  0  0
   24.2350   10.8650   18.2430 C   0  0  0  0  0  0  0  0  0  0  0  0
   25.5500   10.8410   18.6560 C   0  0  0  0  0  0  0  0  0  0  0  0
   25.8710   10.7460   20.0070 C   0  0  0  0  0  0  0  0  0  0  0  0
   24.8260   10.6610   20.9430 C   0  0  0  0  0  0  0  0  0  0  0  0
   29.8540   10.9130   21.4510 C   0  0  0  0  0  0  0  0  0  0  0  0
   27.8830    9.7800   21.2080 C   0  0  0  0  0  0  0  0  0  0  0  0
   27.3000   10.8010   20.4650 C   0  0  0  0  0  0  0  0  0  0  0  0
   28.0930   11.9190   20.2200 C   0  0  0  0  0  0  0  0  0  0  0  0
   29.3850   11.9780   20.7130 C   0  0  0  0  0  0  0  0  0  0  0  0
    0.0000    0.0000    0.0000 H   0  0  0  0  0  0  0  0  0  0  0  0
    0.0000    0.0000    0.0000 H   0  0  0  0  0  0  0  0  0  0  0  0
    0.0000    0.0000    0.0000 H   0  0  0  0  0  0  0  0  0  0  0  0
    0.0000    0.0000    0.0000 H   0  0  0  0  0  0  0  0  0  0  0  0
    0.0000    0.0000    0.0000 H   0  0  0  0  0  0  0  0  0  0  0  0
    0.0000    0.0000    0.0000 H   0  0  0  0  0  0  0  0  0  0  0  0
    0.0000    0.0000    0.0000 H   0  0  0  0  0  0  0  0  0  0  0  0
    0.0000    0.0000    0.0000 H   0  0  0  0  0  0  0  0  0  0  0  0
    0.0000    0.0000    0.0000 H   0  0  0  0  0  0  0  0  0  0  0  0
    0.0000    0.0000    0.0000 H   0  0  0  0  0  0  0  0  0  0  0  0
    0.0000    0.0000    0.0000 H   0  0  0  0  0  0  0  0  0  0  0  0
    0.0000    0.0000    0.0000 H   0  0  0  0  0  0  0  0  0  0  0  0
    0.0000    0.0000    0.0000 H   0  0  0  0  0  0  0  0  0  0  0  0
   10.8666    5.1894   10.4882 C   0  0  0  0  0  0  0  0  0  0  0  0
    9.7838    5.9692   10.1460 C   0  0  0  0  0  0  0  0  0  0  0  0
    8.8640    5.4652    9.2232 C   0  0  0  0  0  0  0  0  0  0  0  0
    9.0498    4.2152    8.6768 C   0  0  0  0  0  0  0  0  0  0  0  0
    8.1271    3.7530    7.7746 F   0  0  0  0  0  0  0  0  0  0  0  0
   10.1372    3.4550    9.0330 C   0  0  0  0  0  0  0  0  0  0  0  0
   11.0539    3.9371    9.9417 C   0  0  0  0  0  0  0  0  0  0  0  0
    9.6564    6.9486   10.5870 H   0  0  0  0  0  0  0  0  0  0  0  0
    8.0153    6.0665    8.9496 H   0  0  0  0  0  0  0  0  0  0  0  0
   10.2350    2.4819    8.5746 H   0  0  0  0  0  0  0  0  0  0  0  0
   11.9133    3.3425   10.2265 H   0  0  0  0  0  0  0  0  0  0  0  0
  1  3  2  0
  1  4  1  0
  2  4  1  0
  1  5  1  0
  2  6  1  0
  5  6  1  0
  6  7  2  3
  5  8  1  0
  4 10  1  6
 10 11  2  0
 11 12  1  0
 12 13  2  0
 13 14  1  0
 10 15  1  0
 14 15  2  0
  9 16  2  0
  9 17  1  0
 14 18  1  0
 17 18  2  0
 18 19  1  0
 16 20  1  0
 19 20  2  0
  2 21  1  0
  7 22  1  0
  8 23  1  0
  8 24  1  0
  8 25  1  0
 11 26  1  0
 12 27  1  0
 13 28  1  0
 15 29  1  0
 16 30  1  0
 17 31  1  0
 19 32  1  0
 20 33  1  0
 34 35  2  0
 35 36  1  0
 36 37  2  0
 37 38  1  0
 37 39  1  0
 39 40  2  0
 40 34  1  0
 35 41  1  0
 36 42  1  0
 39 43  1  0
 40 44  1  0
  4 34  1  0
M  END
>  <attachment_point>  (27) 
21

>  <score>  (27) 
<NA>

$$$$
4djw
     RDKit          3D

 50 53  0  0  0  0  0  0  0  0999 V2000
   22.4950   11.8750   22.5810 C   0  0  0  0  0  0  0  0  0  0  0  0
   22.5380    9.4930   22.4640 N   0  0  0  0  0  0  0  0  0  0  0  0
   22.3600   13.0630   22.3480 O   0  0  0  0  0  0  0  0  0  0  0  0
   22.3390   10.6680   21.5610 C   0  0  2  0  0  0  0  0  0  0  0  0
   22.7860   11.3350   23.8120 N   0  0  0  0  0  0  0  0  0  0  0  0
   22.7800    9.9140   23.7010 C   0  0  0  0  0  0  0  0  0  0  0  0
   22.9970    9.1110   24.7490 N   0  0  0  0  0  0  0  0  0  0  0  0
   23.0220   12.1410   25.0180 C   0  0  0  0  0  0  0  0  0  0  0  0
   29.1260    9.8230   21.7090 N   0  0  0  0  0  0  0  0  0  0  0  0
   23.4880   10.6920   20.5300 C   0  0  0  0  0  0  0  0  0  0  0  0
   23.2110   10.7890   19.1730 C   0  0  0  0  0  0  0  0  0  0  0  0
   24.2350   10.8650   18.2430 C   0  0  0  0  0  0  0  0  0  0  0  0
   25.5500   10.8410   18.6560 C   0  0  0  0  0  0  0  0  0  0  0  0
   25.8710   10.7460   20.0070 C   0  0  0  0  0  0  0  0  0  0  0  0
   24.8260   10.6610   20.9430 C   0  0  0  0  0  0  0  0  0  0  0  0
   29.8540   10.9130   21.4510 C   0  0  0  0  0  0  0  0  0  0  0  0
   27.8830    9.7800   21.2080 C   0  0  0  0  0  0  0  0  0  0  0  0
   27.3000   10.8010   20.4650 C   0  0  0  0  0  0  0  0  0  0  0  0
   28.0930   11.9190   20.2200 C   0  0  0  0  0  0  0  0  0  0  0  0
   29.3850   11.9780   20.7130 C   0  0  0  0  0  0  0  0  0  0  0  0
    0.0000    0.0000    0.0000 H   0  0  0  0  0  0  0  0  0  0  0  0
    0.0000    0.0000    0.0000 H   0  0  0  0  0  0  0  0  0  0  0  0
    0.0000    0.0000    0.0000 H   0  0  0  0  0  0  0  0  0  0  0  0
    0.0000    0.0000    0.0000 H   0  0  0  0  0  0  0  0  0  0  0  0
    0.0000    0.0000    0.0000 H   0  0  0  0  0  0  0  0  0  0  0  0
    0.0000    0.0000    0.0000 H   0  0  0  0  0  0  0  0  0  0  0  0
    0.0000    0.0000    0.0000 H   0  0  0  0  0  0  0  0  0  0  0  0
    0.0000    0.0000    0.0000 H   0  0  0  0  0  0  0  0  0  0  0  0
    0.0000    0.0000    0.0000 H   0  0  0  0  0  0  0  0  0  0  0  0
    0.0000    0.0000    0.0000 H   0  0  0  0  0  0  0  0  0  0  0  0
    0.0000    0.0000    0.0000 H   0  0  0  0  0  0  0  0  0  0  0  0
    0.0000    0.0000    0.0000 H   0  0  0  0  0  0  0  0  0  0  0  0
    0.0000    0.0000    0.0000 H   0  0  0  0  0  0  0  0  0  0  0  0
   10.8709    5.1914   10.4923 C   0  0  0  0  0  0  0  0  0  0  0  0
   11.2899    5.8228    9.1783 C   0  0  0  0  0  0  0  0  0  0  0  0
   11.6106    7.2519    9.4252 C   0  0  0  0  0  0  0  0  0  0  0  0
   10.6324    8.0049   10.2389 C   0  0  0  0  0  0  0  0  0  0  0  0
    9.8497    7.2394   11.2256 C   0  0  0  0  0  0  0  0  0  0  0  0
    9.5211    5.8246   10.8064 C   0  0  0  0  0  0  0  0  0  0  0  0
   10.8461    4.1065   10.4733 H   0  0  0  0  0  0  0  0  0  0  0  0
   10.4445    5.7087    8.4727 H   0  0  0  0  0  0  0  0  0  0  0  0
   12.1853    5.3049    8.8166 H   0  0  0  0  0  0  0  0  0  0  0  0
   12.6495    7.3180    9.8633 H   0  0  0  0  0  0  0  0  0  0  0  0
   11.6765    7.7611    8.4189 H   0  0  0  0  0  0  0  0  0  0  0  0
    9.9105    8.6037    9.6086 H   0  0  0  0  0  0  0  0  0  0  0  0
   11.2103    8.8007   10.7970 H   0  0  0  0  0  0  0  0  0  0  0  0
    8.8989    7.7730   11.4494 H   0  0  0  0  0  0  0  0  0  0  0  0
   10.4563    7.1422   12.1721 H   0  0  0  0  0  0  0  0  0  0  0  0
    8.9279    5.9034    9.8553 H   0  0  0  0  0  0  0  0  0  0  0  0
    8.9709    5.3103   11.5837 H   0  0  0  0  0  0  0  0  0  0  0  0
  1  3  2  0
  1  4  1  0
  2  4  1  0
  1  5  1  0
  2  6  1  0
  5  6  1  0
  6  7  2  3
  5  8  1  0
  4 10  1  0
 10 11  2  0
 11 12  1  0
 12 13  2  0
 13 14  1  0
 10 15  1  0
 14 15  2  0
  9 16  2  0
  9 17  1  0
 14 18  1  0
 17 18  2  0
 18 19  1  0
 16 20  1  0
 19 20  2  0
  2 21  1  0
  7 22  1  0
  8 23  1  0
  8 24  1  0
  8 25  1  0
 11 26  1  0
 12 27  1  0
 13 28  1  0
 15 29  1  0
 16 30  1  0
 17 31  1  0
 19 32  1  0
 20 33  1  0
 34 35  1  0
 35 36  1  0
 36 37  1  0
 37 38  1  0
 38 39  1  0
 39 34  1  0
 34 40  1  0
 35 41  1  0
 35 42  1  0
 36 43  1  0
 36 44  1  0
 37 45  1  0
 37 46  1  0
 38 47  1  0
 38 48  1  0
 39 49  1  0
 39 50  1  0
  4 34  1  6
M  END
>  <attachment_point>  (28) 
21

>  <score>  (28) 
<NA>

$$$$
4djw
     RDKit          3D

 40 42  0  0  0  0  0  0  0  0999 V2000
   22.4950   11.8750   22.5810 C   0  0  0  0  0  0  0  0  0  0  0  0
   22.5380    9.4930   22.4640 N   0  0  0  0  0  0  0  0  0  0  0  0
   22.3600   13.0630   22.3480 O   0  0  0  0  0  0  0  0  0  0  0  0
   22.3390   10.6680   21.5610 C   0  0  2  0  0  0  0  0  0  0  0  0
   22.7860   11.3350   23.8120 N   0  0  0  0  0  0  0  0  0  0  0  0
   22.7800    9.9140   23.7010 C   0  0  0  0  0  0  0  0  0  0  0  0
   22.9970    9.1110   24.7490 N   0  0  0  0  0  0  0  0  0  0  0  0
   23.0220   12.1410   25.0180 C   0  0  0  0  0  0  0  0  0  0  0  0
   29.1260    9.8230   21.7090 N   0  0  0  0  0  0  0  0  0  0  0  0
   23.4880   10.6920   20.5300 C   0  0  0  0  0  0  0  0  0  0  0  0
   23.2110   10.7890   19.1730 C   0  0  0  0  0  0  0  0  0  0  0  0
   24.2350   10.8650   18.2430 C   0  0  0  0  0  0  0  0  0  0  0  0
   25.5500   10.8410   18.6560 C   0  0  0  0  0  0  0  0  0  0  0  0
   25.8710   10.7460   20.0070 C   0  0  0  0  0  0  0  0  0  0  0  0
   24.8260   10.6610   20.9430 C   0  0  0  0  0  0  0  0  0  0  0  0
   29.8540   10.9130   21.4510 C   0  0  0  0  0  0  0  0  0  0  0  0
   27.8830    9.7800   21.2080 C   0  0  0  0  0  0  0  0  0  0  0  0
   27.3000   10.8010   20.4650 C   0  0  0  0  0  0  0  0  0  0  0  0
   28.0930   11.9190   20.2200 C   0  0  0  0  0  0  0  0  0  0  0  0
   29.3850   11.9780   20.7130 C   0  0  0  0  0  0  0  0  0  0  0  0
    0.0000    0.0000    0.0000 H   0  0  0  0  0  0  0  0  0  0  0  0
    0.0000    0.0000    0.0000 H   0  0  0  0  0  0  0  0  0  0  0  0
    0.0000    0.0000    0.0000 H   0  0  0  0  0  0  0  0  0  0  0  0
    0.0000    0.0000    0.0000 H   0  0  0  0  0  0  0  0  0  0  0  0
    0.0000    0.0000    0.0000 H   0  0  0  0  0  0  0  0  0  0  0  0
    0.0000    0.0000    0.0000 H   0  0  0  0  0  0  0  0  0  0  0  0
    0.0000    0.0000    0.0000 H   0  0  0  0  0  0  0  0  0  0  0  0
    0.0000    0.0000    0.0000 H   0  0  0  0  0  0  0  0  0  0  0  0
    0.0000    0.0000    0.0000 H   0  0  0  0  0  0  0  0  0  0  0  0
    0.0000    0.0000    0.0000 H   0  0  0  0  0  0  0  0  0  0  0  0
    0.0000    0.0000    0.0000 H   0  0  0  0  0  0  0  0  0  0  0  0
    0.0000    0.0000    0.0000 H   0  0  0  0  0  0  0  0  0  0  0  0
    0.0000    0.0000    0.0000 H   0  0  0  0  0  0  0  0  0  0  0  0
   10.8478    5.1804   10.4700 C   0  0  0  0  0  0  0  0  0  0  0  0
   11.5594    5.1450    9.1800 C   0  0  0  0  0  0  0  0  0  0  0  0
   11.5254    6.1896    8.4764 O   0  0  0  0  0  0  0  0  0  0  0  0
   12.2441    4.0191    8.7398 O   0  0  0  0  0  0  0  0  0  0  0  0
   10.5405    4.1797   10.8250 H   0  0  0  0  0  0  0  0  0  0  0  0
   10.0222    5.9017   10.4939 H   0  0  0  0  0  0  0  0  0  0  0  0
   12.9690    4.1289    8.0350 H   0  0  0  0  0  0  0  0  0  0  0  0
  1  3  2  0
  1  4  1  0
  2  4  1  0
  1  5  1  0
  2  6  1  0
  5  6  1  0
  6  7  2  3
  5  8  1  0
  4 10  1  0
 10 11  2  0
 11 12  1  0
 12 13  2  0
 13 14  1  0
 10 15  1  0
 14 15  2  0
  9 16  2  0
  9 17  1  0
 14 18  1  0
 17 18  2  0
 18 19  1  0
 16 20  1  0
 19 20  2  0
  2 21  1  0
  7 22  1  0
  8 23  1  0
  8 24  1  0
  8 25  1  0
 11 26  1  0
 12 27  1  0
 13 28  1  0
 15 29  1  0
 16 30  1  0
 17 31  1  0
 19 32  1  0
 20 33  1  0
 34 35  1  0
 35 36  2  0
 35 37  1  0
 34 38  1  0
 34 39  1  0
 37 40  1  0
  4 34  1  6
M  END
>  <attachment_point>  (29) 
21

>  <score>  (29) 
<NA>

$$$$
4djw
     RDKit          3D

 43 46  0  0  0  0  0  0  0  0999 V2000
   22.4950   11.8750   22.5810 C   0  0  0  0  0  0  0  0  0  0  0  0
   22.5380    9.4930   22.4640 N   0  0  0  0  0  0  0  0  0  0  0  0
   22.3600   13.0630   22.3480 O   0  0  0  0  0  0  0  0  0  0  0  0
   22.3390   10.6680   21.5610 C   0  0  2  0  0  0  0  0  0  0  0  0
   22.7860   11.3350   23.8120 N   0  0  0  0  0  0  0  0  0  0  0  0
   22.7800    9.9140   23.7010 C   0  0  0  0  0  0  0  0  0  0  0  0
   22.9970    9.1110   24.7490 N   0  0  0  0  0  0  0  0  0  0  0  0
   23.0220   12.1410   25.0180 C   0  0  0  0  0  0  0  0  0  0  0  0
   29.1260    9.8230   21.7090 N   0  0  0  0  0  0  0  0  0  0  0  0
   23.4880   10.6920   20.5300 C   0  0  0  0  0  0  0  0  0  0  0  0
   23.2110   10.7890   19.1730 C   0  0  0  0  0  0  0  0  0  0  0  0
   24.2350   10.8650   18.2430 C   0  0  0  0  0  0  0  0  0  0  0  0
   25.5500   10.8410   18.6560 C   0  0  0  0  0  0  0  0  0  0  0  0
   25.8710   10.7460   20.0070 C   0  0  0  0  0  0  0  0  0  0  0  0
   24.8260   10.6610   20.9430 C   0  0  0  0  0  0  0  0  0  0  0  0
   29.8540   10.9130   21.4510 C   0  0  0  0  0  0  0  0  0  0  0  0
   27.8830    9.7800   21.2080 C   0  0  0  0  0  0  0  0  0  0  0  0
   27.3000   10.8010   20.4650 C   0  0  0  0  0  0  0  0  0  0  0  0
   28.0930   11.9190   20.2200 C   0  0  0  0  0  0  0  0  0  0  0  0
   29.3850   11.9780   20.7130 C   0  0  0  0  0  0  0  0  0  0  0  0
    0.0000    0.0000    0.0000 H   0  0  0  0  0  0  0  0  0  0  0  0
    0.0000    0.0000    0.0000 H   0  0  0  0  0  0  0  0  0  0  0  0
    0.0000    0.0000    0.0000 H   0  0  0  0  0  0  0  0  0  0  0  0
    0.0000    0.0000    0.0000 H   0  0  0  0  0  0  0  0  0  0  0  0
    0.0000    0.0000    0.0000 H   0  0  0  0  0  0  0  0  0  0  0  0
    0.0000    0.0000    0.0000 H   0  0  0  0  0  0  0  0  0  0  0  0
    0.0000    0.0000    0.0000 H   0  0  0  0  0  0  0  0  0  0  0  0
    0.0000    0.0000    0.0000 H   0  0  0  0  0  0  0  0  0  0  0  0
    0.0000    0.0000    0.0000 H   0  0  0  0  0  0  0  0  0  0  0  0
    0.0000    0.0000    0.0000 H   0  0  0  0  0  0  0  0  0  0  0  0
    0.0000    0.0000    0.0000 H   0  0  0  0  0  0  0  0  0  0  0  0
    0.0000    0.0000    0.0000 H   0  0  0  0  0  0  0  0  0  0  0  0
    0.0000    0.0000    0.0000 H   0  0  0  0  0  0  0  0  0  0  0  0
   10.8761    5.1939   10.4973 C   0  0  0  0  0  0  0  0  0  0  0  0
   10.5520    6.0292    9.4449 C   0  0  0  0  0  0  0  0  0  0  0  0
    9.6198    5.6443    8.5000 C   0  0  0  0  0  0  0  0  0  0  0  0
    9.0171    4.4042    8.6294 C   0  0  0  0  0  0  0  0  0  0  0  0
    9.3502    3.5824    9.6836 C   0  0  0  0  0  0  0  0  0  0  0  0
   10.2613    4.0183   10.5626 N   0  0  0  0  0  0  0  0  0  0  0  0
   11.0341    7.0152    9.3455 H   0  0  0  0  0  0  0  0  0  0  0  0
    9.3507    6.2758    7.6726 H   0  0  0  0  0  0  0  0  0  0  0  0
    8.2730    4.0779    7.8896 H   0  0  0  0  0  0  0  0  0  0  0  0
    8.8555    2.6283    9.7424 H   0  0  0  0  0  0  0  0  0  0  0  0
  1  3  2  0
  1  4  1  0
  2  4  1  0
  1  5  1  0
  2  6  1  0
  5  6  1  0
  6  7  2  3
  5  8  1  0
  4 10  1  6
 10 11  2  0
 11 12  1  0
 12 13  2  0
 13 14  1  0
 10 15  1  0
 14 15  2  0
  9 16  2  0
  9 17  1  0
 14 18  1  0
 17 18  2  0
 18 19  1  0
 16 20  1  0
 19 20  2  0
  2 21  1  0
  7 22  1  0
  8 23  1  0
  8 24  1  0
  8 25  1  0
 11 26  1  0
 12 27  1  0
 13 28  1  0
 15 29  1  0
 16 30  1  0
 17 31  1  0
 19 32  1  0
 20 33  1  0
 34 35  2  0
 35 36  1  0
 36 37  2  0
 37 38  1  0
 38 39  2  0
 39 34  1  0
 35 40  1  0
 36 41  1  0
 37 42  1  0
 38 43  1  0
  4 34  1  0
M  END
>  <attachment_point>  (30) 
21

>  <score>  (30) 
<NA>

$$$$
4djw
     RDKit          3D

 40 42  0  0  0  0  0  0  0  0999 V2000
   22.4950   11.8750   22.5810 C   0  0  0  0  0  0  0  0  0  0  0  0
   22.5380    9.4930   22.4640 N   0  0  0  0  0  0  0  0  0  0  0  0
   22.3600   13.0630   22.3480 O   0  0  0  0  0  0  0  0  0  0  0  0
   22.3390   10.6680   21.5610 C   0  0  2  0  0  0  0  0  0  0  0  0
   22.7860   11.3350   23.8120 N   0  0  0  0  0  0  0  0  0  0  0  0
   22.7800    9.9140   23.7010 C   0  0  0  0  0  0  0  0  0  0  0  0
   22.9970    9.1110   24.7490 N   0  0  0  0  0  0  0  0  0  0  0  0
   23.0220   12.1410   25.0180 C   0  0  0  0  0  0  0  0  0  0  0  0
   29.1260    9.8230   21.7090 N   0  0  0  0  0  0  0  0  0  0  0  0
   23.4880   10.6920   20.5300 C   0  0  0  0  0  0  0  0  0  0  0  0
   23.2110   10.7890   19.1730 C   0  0  0  0  0  0  0  0  0  0  0  0
   24.2350   10.8650   18.2430 C   0  0  0  0  0  0  0  0  0  0  0  0
   25.5500   10.8410   18.6560 C   0  0  0  0  0  0  0  0  0  0  0  0
   25.8710   10.7460   20.0070 C   0  0  0  0  0  0  0  0  0  0  0  0
   24.8260   10.6610   20.9430 C   0  0  0  0  0  0  0  0  0  0  0  0
   29.8540   10.9130   21.4510 C   0  0  0  0  0  0  0  0  0  0  0  0
   27.8830    9.7800   21.2080 C   0  0  0  0  0  0  0  0  0  0  0  0
   27.3000   10.8010   20.4650 C   0  0  0  0  0  0  0  0  0  0  0  0
   28.0930   11.9190   20.2200 C   0  0  0  0  0  0  0  0  0  0  0  0
   29.3850   11.9780   20.7130 C   0  0  0  0  0  0  0  0  0  0  0  0
    0.0000    0.0000    0.0000 H   0  0  0  0  0  0  0  0  0  0  0  0
    0.0000    0.0000    0.0000 H   0  0  0  0  0  0  0  0  0  0  0  0
    0.0000    0.0000    0.0000 H   0  0  0  0  0  0  0  0  0  0  0  0
    0.0000    0.0000    0.0000 H   0  0  0  0  0  0  0  0  0  0  0  0
    0.0000    0.0000    0.0000 H   0  0  0  0  0  0  0  0  0  0  0  0
    0.0000    0.0000    0.0000 H   0  0  0  0  0  0  0  0  0  0  0  0
    0.0000    0.0000    0.0000 H   0  0  0  0  0  0  0  0  0  0  0  0
    0.0000    0.0000    0.0000 H   0  0  0  0  0  0  0  0  0  0  0  0
    0.0000    0.0000    0.0000 H   0  0  0  0  0  0  0  0  0  0  0  0
    0.0000    0.0000    0.0000 H   0  0  0  0  0  0  0  0  0  0  0  0
    0.0000    0.0000    0.0000 H   0  0  0  0  0  0  0  0  0  0  0  0
    0.0000    0.0000    0.0000 H   0  0  0  0  0  0  0  0  0  0  0  0
    0.0000    0.0000    0.0000 H   0  0  0  0  0  0  0  0  0  0  0  0
   10.8177    5.1660   10.4410 C   0  0  0  0  0  0  0  0  0  0  0  0
    9.6623    5.2941   10.7377 O   0  0  0  0  0  0  0  0  0  0  0  0
   11.3225    4.6356    9.3261 O   0  0  0  0  0  0  0  0  0  0  0  0
   10.4851    4.1328    8.3043 C   0  0  0  0  0  0  0  0  0  0  0  0
   10.6671    3.0400    8.2504 H   0  0  0  0  0  0  0  0  0  0  0  0
   10.7592    4.5284    7.2987 H   0  0  0  0  0  0  0  0  0  0  0  0
    9.4220    4.2990    8.4748 H   0  0  0  0  0  0  0  0  0  0  0  0
  1  3  2  0
  1  4  1  0
  2  4  1  0
  1  5  1  0
  2  6  1  0
  5  6  1  0
  6  7  2  3
  5  8  1  0
  4 10  1  0
 10 11  2  0
 11 12  1  0
 12 13  2  0
 13 14  1  0
 10 15  1  0
 14 15  2  0
  9 16  2  0
  9 17  1  0
 14 18  1  0
 17 18  2  0
 18 19  1  0
 16 20  1  0
 19 20  2  0
  2 21  1  0
  7 22  1  0
  8 23  1  0
  8 24  1  0
  8 25  1  0
 11 26  1  0
 12 27  1  0
 13 28  1  0
 15 29  1  0
 16 30  1  0
 17 31  1  0
 19 32  1  0
 20 33  1  0
 34 35  2  0
 34 36  1  0
 36 37  1  0
 37 38  1  0
 37 39  1  0
 37 40  1  0
  4 34  1  6
M  END
>  <attachment_point>  (31) 
21

>  <score>  (31) 
<NA>

$$$$
4djw
     RDKit          3D

 46 48  0  0  0  0  0  0  0  0999 V2000
   22.4950   11.8750   22.5810 C   0  0  0  0  0  0  0  0  0  0  0  0
   22.5380    9.4930   22.4640 N   0  0  0  0  0  0  0  0  0  0  0  0
   22.3600   13.0630   22.3480 O   0  0  0  0  0  0  0  0  0  0  0  0
   22.3390   10.6680   21.5610 C   0  0  2  0  0  0  0  0  0  0  0  0
   22.7860   11.3350   23.8120 N   0  0  0  0  0  0  0  0  0  0  0  0
   22.7800    9.9140   23.7010 C   0  0  0  0  0  0  0  0  0  0  0  0
   22.9970    9.1110   24.7490 N   0  0  0  0  0  0  0  0  0  0  0  0
   23.0220   12.1410   25.0180 C   0  0  0  0  0  0  0  0  0  0  0  0
   29.1260    9.8230   21.7090 N   0  0  0  0  0  0  0  0  0  0  0  0
   23.4880   10.6920   20.5300 C   0  0  0  0  0  0  0  0  0  0  0  0
   23.2110   10.7890   19.1730 C   0  0  0  0  0  0  0  0  0  0  0  0
   24.2350   10.8650   18.2430 C   0  0  0  0  0  0  0  0  0  0  0  0
   25.5500   10.8410   18.6560 C   0  0  0  0  0  0  0  0  0  0  0  0
   25.8710   10.7460   20.0070 C   0  0  0  0  0  0  0  0  0  0  0  0
   24.8260   10.6610   20.9430 C   0  0  0  0  0  0  0  0  0  0  0  0
   29.8540   10.9130   21.4510 C   0  0  0  0  0  0  0  0  0  0  0  0
   27.8830    9.7800   21.2080 C   0  0  0  0  0  0  0  0  0  0  0  0
   27.3000   10.8010   20.4650 C   0  0  0  0  0  0  0  0  0  0  0  0
   28.0930   11.9190   20.2200 C   0  0  0  0  0  0  0  0  0  0  0  0
   29.3850   11.9780   20.7130 C   0  0  0  0  0  0  0  0  0  0  0  0
    0.0000    0.0000    0.0000 H   0  0  0  0  0  0  0  0  0  0  0  0
    0.0000    0.0000    0.0000 H   0  0  0  0  0  0  0  0  0  0  0  0
    0.0000    0.0000    0.0000 H   0  0  0  0  0  0  0  0  0  0  0  0
    0.0000    0.0000    0.0000 H   0  0  0  0  0  0  0  0  0  0  0  0
    0.0000    0.0000    0.0000 H   0  0  0  0  0  0  0  0  0  0  0  0
    0.0000    0.0000    0.0000 H   0  0  0  0  0  0  0  0  0  0  0  0
    0.0000    0.0000    0.0000 H   0  0  0  0  0  0  0  0  0  0  0  0
    0.0000    0.0000    0.0000 H   0  0  0  0  0  0  0  0  0  0  0  0
    0.0000    0.0000    0.0000 H   0  0  0  0  0  0  0  0  0  0  0  0
    0.0000    0.0000    0.0000 H   0  0  0  0  0  0  0  0  0  0  0  0
    0.0000    0.0000    0.0000 H   0  0  0  0  0  0  0  0  0  0  0  0
    0.0000    0.0000    0.0000 H   0  0  0  0  0  0  0  0  0  0  0  0
    0.0000    0.0000    0.0000 H   0  0  0  0  0  0  0  0  0  0  0  0
   10.7391    5.1285   10.3651 C   0  0  0  0  0  0  0  0  0  0  0  0
    9.7318    5.4318   11.4243 C   0  0  0  0  0  0  0  0  0  0  0  0
    8.4009    5.0844   10.8855 C   0  0  0  0  0  0  0  0  0  0  0  0
    7.3617    5.3944   11.9711 C   0  0  0  0  0  0  0  0  0  0  0  0
   11.0946    5.9365    9.7686 H   0  0  0  0  0  0  0  0  0  0  0  0
   11.2758    4.2089   10.4382 H   0  0  0  0  0  0  0  0  0  0  0  0
    9.9023    4.7993   12.3451 H   0  0  0  0  0  0  0  0  0  0  0  0
    9.7187    6.4890   11.7554 H   0  0  0  0  0  0  0  0  0  0  0  0
    8.1220    5.7640   10.0325 H   0  0  0  0  0  0  0  0  0  0  0  0
    8.2709    4.0245   10.6184 H   0  0  0  0  0  0  0  0  0  0  0  0
    6.3465    5.2864   11.5454 H   0  0  0  0  0  0  0  0  0  0  0  0
    7.5277    4.6488   12.7684 H   0  0  0  0  0  0  0  0  0  0  0  0
    7.5778    6.3861   12.3735 H   0  0  0  0  0  0  0  0  0  0  0  0
  1  3  2  0
  1  4  1  0
  2  4  1  0
  1  5  1  0
  2  6  1  0
  5  6  1  0
  6  7  2  3
  5  8  1  0
  4 10  1  0
 10 11  2  0
 11 12  1  0
 12 13  2  0
 13 14  1  0
 10 15  1  0
 14 15  2  0
  9 16  2  0
  9 17  1  0
 14 18  1  0
 17 18  2  0
 18 19  1  0
 16 20  1  0
 19 20  2  0
  2 21  1  0
  7 22  1  0
  8 23  1  0
  8 24  1  0
  8 25  1  0
 11 26  1  0
 12 27  1  0
 13 28  1  0
 15 29  1  0
 16 30  1  0
 17 31  1  0
 19 32  1  0
 20 33  1  0
 34 35  1  0
 35 36  1  0
 36 37  1  0
 34 38  1  0
 34 39  1  0
 35 40  1  0
 35 41  1  0
 36 42  1  0
 36 43  1  0
 37 44  1  0
 37 45  1  0
 37 46  1  0
  4 34  1  6
M  END
>  <attachment_point>  (32) 
21

>  <score>  (32) 
<NA>

$$$$
4djw
     RDKit          3D

 41 43  0  0  0  0  0  0  0  0999 V2000
   22.4950   11.8750   22.5810 C   0  0  0  0  0  0  0  0  0  0  0  0
   22.5380    9.4930   22.4640 N   0  0  0  0  0  0  0  0  0  0  0  0
   22.3600   13.0630   22.3480 O   0  0  0  0  0  0  0  0  0  0  0  0
   22.3390   10.6680   21.5610 C   0  0  2  0  0  0  0  0  0  0  0  0
   22.7860   11.3350   23.8120 N   0  0  0  0  0  0  0  0  0  0  0  0
   22.7800    9.9140   23.7010 C   0  0  0  0  0  0  0  0  0  0  0  0
   22.9970    9.1110   24.7490 N   0  0  0  0  0  0  0  0  0  0  0  0
   23.0220   12.1410   25.0180 C   0  0  0  0  0  0  0  0  0  0  0  0
   29.1260    9.8230   21.7090 N   0  0  0  0  0  0  0  0  0  0  0  0
   23.4880   10.6920   20.5300 C   0  0  0  0  0  0  0  0  0  0  0  0
   23.2110   10.7890   19.1730 C   0  0  0  0  0  0  0  0  0  0  0  0
   24.2350   10.8650   18.2430 C   0  0  0  0  0  0  0  0  0  0  0  0
   25.5500   10.8410   18.6560 C   0  0  0  0  0  0  0  0  0  0  0  0
   25.8710   10.7460   20.0070 C   0  0  0  0  0  0  0  0  0  0  0  0
   24.8260   10.6610   20.9430 C   0  0  0  0  0  0  0  0  0  0  0  0
   29.8540   10.9130   21.4510 C   0  0  0  0  0  0  0  0  0  0  0  0
   27.8830    9.7800   21.2080 C   0  0  0  0  0  0  0  0  0  0  0  0
   27.3000   10.8010   20.4650 C   0  0  0  0  0  0  0  0  0  0  0  0
   28.0930   11.9190   20.2200 C   0  0  0  0  0  0  0  0  0  0  0  0
   29.3850   11.9780   20.7130 C   0  0  0  0  0  0  0  0  0  0  0  0
    0.0000    0.0000    0.0000 H   0  0  0  0  0  0  0  0  0  0  0  0
    0.0000    0.0000    0.0000 H   0  0  0  0  0  0  0  0  0  0  0  0
    0.0000    0.0000    0.0000 H   0  0  0  0  0  0  0  0  0  0  0  0
    0.0000    0.0000    0.0000 H   0  0  0  0  0  0  0  0  0  0  0  0
    0.0000    0.0000    0.0000 H   0  0  0  0  0  0  0  0  0  0  0  0
    0.0000    0.0000    0.0000 H   0  0  0  0  0  0  0  0  0  0  0  0
    0.0000    0.0000    0.0000 H   0  0  0  0  0  0  0  0  0  0  0  0
    0.0000    0.0000    0.0000 H   0  0  0  0  0  0  0  0  0  0  0  0
    0.0000    0.0000    0.0000 H   0  0  0  0  0  0  0  0  0  0  0  0
    0.0000    0.0000    0.0000 H   0  0  0  0  0  0  0  0  0  0  0  0
    0.0000    0.0000    0.0000 H   0  0  0  0  0  0  0  0  0  0  0  0
    0.0000    0.0000    0.0000 H   0  0  0  0  0  0  0  0  0  0  0  0
    0.0000    0.0000    0.0000 H   0  0  0  0  0  0  0  0  0  0  0  0
   10.8911    5.2010   10.5118 N   0  0  0  0  0  0  0  0  0  0  0  0
   11.3462    4.7786    9.2335 C   0  0  0  0  0  0  0  0  0  0  0  0
   10.3417    4.2966    8.2574 C   0  0  0  0  0  0  0  0  0  0  0  0
   12.5559    4.7918    8.8862 O   0  0  0  0  0  0  0  0  0  0  0  0
    9.8890    5.1920   10.8045 H   0  0  0  0  0  0  0  0  0  0  0  0
    9.8856    5.1553    7.6843 H   0  0  0  0  0  0  0  0  0  0  0  0
    9.5618    3.6662    8.7236 H   0  0  0  0  0  0  0  0  0  0  0  0
   10.8357    3.6696    7.4873 H   0  0  0  0  0  0  0  0  0  0  0  0
  1  3  2  0
  1  4  1  0
  2  4  1  0
  1  5  1  0
  2  6  1  0
  5  6  1  0
  6  7  2  3
  5  8  1  0
  4 10  1  0
 10 11  2  0
 11 12  1  0
 12 13  2  0
 13 14  1  0
 10 15  1  0
 14 15  2  0
  9 16  2  0
  9 17  1  0
 14 18  1  0
 17 18  2  0
 18 19  1  0
 16 20  1  0
 19 20  2  0
  2 21  1  0
  7 22  1  0
  8 23  1  0
  8 24  1  0
  8 25  1  0
 11 26  1  0
 12 27  1  0
 13 28  1  0
 15 29  1  0
 16 30  1  0
 17 31  1  0
 19 32  1  0
 20 33  1  0
 34 35  1  0
 35 36  1  0
 35 37  2  0
 34 38  1  0
 36 39  1  0
 36 40  1  0
 36 41  1  0
  4 34  1  6
M  END
>  <attachment_point>  (33) 
21

>  <score>  (33) 
<NA>

$$$$
4djw
     RDKit          3D

 39 41  0  0  0  0  0  0  0  0999 V2000
   22.4950   11.8750   22.5810 C   0  0  0  0  0  0  0  0  0  0  0  0
   22.5380    9.4930   22.4640 N   0  0  0  0  0  0  0  0  0  0  0  0
   22.3600   13.0630   22.3480 O   0  0  0  0  0  0  0  0  0  0  0  0
   22.3390   10.6680   21.5610 C   0  0  2  0  0  0  0  0  0  0  0  0
   22.7860   11.3350   23.8120 N   0  0  0  0  0  0  0  0  0  0  0  0
   22.7800    9.9140   23.7010 C   0  0  0  0  0  0  0  0  0  0  0  0
   22.9970    9.1110   24.7490 N   0  0  0  0  0  0  0  0  0  0  0  0
   23.0220   12.1410   25.0180 C   0  0  0  0  0  0  0  0  0  0  0  0
   29.1260    9.8230   21.7090 N   0  0  0  0  0  0  0  0  0  0  0  0
   23.4880   10.6920   20.5300 C   0  0  0  0  0  0  0  0  0  0  0  0
   23.2110   10.7890   19.1730 C   0  0  0  0  0  0  0  0  0  0  0  0
   24.2350   10.8650   18.2430 C   0  0  0  0  0  0  0  0  0  0  0  0
   25.5500   10.8410   18.6560 C   0  0  0  0  0  0  0  0  0  0  0  0
   25.8710   10.7460   20.0070 C   0  0  0  0  0  0  0  0  0  0  0  0
   24.8260   10.6610   20.9430 C   0  0  0  0  0  0  0  0  0  0  0  0
   29.8540   10.9130   21.4510 C   0  0  0  0  0  0  0  0  0  0  0  0
   27.8830    9.7800   21.2080 C   0  0  0  0  0  0  0  0  0  0  0  0
   27.3000   10.8010   20.4650 C   0  0  0  0  0  0  0  0  0  0  0  0
   28.0930   11.9190   20.2200 C   0  0  0  0  0  0  0  0  0  0  0  0
   29.3850   11.9780   20.7130 C   0  0  0  0  0  0  0  0  0  0  0  0
    0.0000    0.0000    0.0000 H   0  0  0  0  0  0  0  0  0  0  0  0
    0.0000    0.0000    0.0000 H   0  0  0  0  0  0  0  0  0  0  0  0
    0.0000    0.0000    0.0000 H   0  0  0  0  0  0  0  0  0  0  0  0
    0.0000    0.0000    0.0000 H   0  0  0  0  0  0  0  0  0  0  0  0
    0.0000    0.0000    0.0000 H   0  0  0  0  0  0  0  0  0  0  0  0
    0.0000    0.0000    0.0000 H   0  0  0  0  0  0  0  0  0  0  0  0
    0.0000    0.0000    0.0000 H   0  0  0  0  0  0  0  0  0  0  0  0
    0.0000    0.0000    0.0000 H   0  0  0  0  0  0  0  0  0  0  0  0
    0.0000    0.0000    0.0000 H   0  0  0  0  0  0  0  0  0  0  0  0
    0.0000    0.0000    0.0000 H   0  0  0  0  0  0  0  0  0  0  0  0
    0.0000    0.0000    0.0000 H   0  0  0  0  0  0  0  0  0  0  0  0
    0.0000    0.0000    0.0000 H   0  0  0  0  0  0  0  0  0  0  0  0
    0.0000    0.0000    0.0000 H   0  0  0  0  0  0  0  0  0  0  0  0
   10.8994    5.2050   10.5198 N   0  0  0  0  0  0  0  0  0  0  0  0
   10.3355    3.9742   11.0524 C   0  0  0  0  0  0  0  0  0  0  0  0
   10.1175    5.9084   10.5585 H   0  0  0  0  0  0  0  0  0  0  0  0
   10.9856    3.1172   10.7782 H   0  0  0  0  0  0  0  0  0  0  0  0
    9.3471    3.7568   10.5594 H   0  0  0  0  0  0  0  0  0  0  0  0
   10.1836    4.0841   12.1356 H   0  0  0  0  0  0  0  0  0  0  0  0
  1  3  2  0
  1  4  1  0
  2  4  1  0
  1  5  1  0
  2  6  1  0
  5  6  1  0
  6  7  2  3
  5  8  1  0
  4 10  1  0
 10 11  2  0
 11 12  1  0
 12 13  2  0
 13 14  1  0
 10 15  1  0
 14 15  2  0
  9 16  2  0
  9 17  1  0
 14 18  1  0
 17 18  2  0
 18 19  1  0
 16 20  1  0
 19 20  2  0
  2 21  1  0
  7 22  1  0
  8 23  1  0
  8 24  1  0
  8 25  1  0
 11 26  1  0
 12 27  1  0
 13 28  1  0
 15 29  1  0
 16 30  1  0
 17 31  1  0
 19 32  1  0
 20 33  1  0
 34 35  1  0
 34 36  1  0
 35 37  1  0
 35 38  1  0
 35 39  1  0
  4 34  1  6
M  END
>  <attachment_point>  (34) 
21

>  <score>  (34) 
<NA>

$$$$
4djw
     RDKit          3D

 39 41  0  0  0  0  0  0  0  0999 V2000
   22.4950   11.8750   22.5810 C   0  0  0  0  0  0  0  0  0  0  0  0
   22.5380    9.4930   22.4640 N   0  0  0  0  0  0  0  0  0  0  0  0
   22.3600   13.0630   22.3480 O   0  0  0  0  0  0  0  0  0  0  0  0
   22.3390   10.6680   21.5610 C   0  0  2  0  0  0  0  0  0  0  0  0
   22.7860   11.3350   23.8120 N   0  0  0  0  0  0  0  0  0  0  0  0
   22.7800    9.9140   23.7010 C   0  0  0  0  0  0  0  0  0  0  0  0
   22.9970    9.1110   24.7490 N   0  0  0  0  0  0  0  0  0  0  0  0
   23.0220   12.1410   25.0180 C   0  0  0  0  0  0  0  0  0  0  0  0
   29.1260    9.8230   21.7090 N   0  0  0  0  0  0  0  0  0  0  0  0
   23.4880   10.6920   20.5300 C   0  0  0  0  0  0  0  0  0  0  0  0
   23.2110   10.7890   19.1730 C   0  0  0  0  0  0  0  0  0  0  0  0
   24.2350   10.8650   18.2430 C   0  0  0  0  0  0  0  0  0  0  0  0
   25.5500   10.8410   18.6560 C   0  0  0  0  0  0  0  0  0  0  0  0
   25.8710   10.7460   20.0070 C   0  0  0  0  0  0  0  0  0  0  0  0
   24.8260   10.6610   20.9430 C   0  0  0  0  0  0  0  0  0  0  0  0
   29.8540   10.9130   21.4510 C   0  0  0  0  0  0  0  0  0  0  0  0
   27.8830    9.7800   21.2080 C   0  0  0  0  0  0  0  0  0  0  0  0
   27.3000   10.8010   20.4650 C   0  0  0  0  0  0  0  0  0  0  0  0
   28.0930   11.9190   20.2200 C   0  0  0  0  0  0  0  0  0  0  0  0
   29.3850   11.9780   20.7130 C   0  0  0  0  0  0  0  0  0  0  0  0
    0.0000    0.0000    0.0000 H   0  0  0  0  0  0  0  0  0  0  0  0
    0.0000    0.0000    0.0000 H   0  0  0  0  0  0  0  0  0  0  0  0
    0.0000    0.0000    0.0000 H   0  0  0  0  0  0  0  0  0  0  0  0
    0.0000    0.0000    0.0000 H   0  0  0  0  0  0  0  0  0  0  0  0
    0.0000    0.0000    0.0000 H   0  0  0  0  0  0  0  0  0  0  0  0
    0.0000    0.0000    0.0000 H   0  0  0  0  0  0  0  0  0  0  0  0
    0.0000    0.0000    0.0000 H   0  0  0  0  0  0  0  0  0  0  0  0
    0.0000    0.0000    0.0000 H   0  0  0  0  0  0  0  0  0  0  0  0
    0.0000    0.0000    0.0000 H   0  0  0  0  0  0  0  0  0  0  0  0
    0.0000    0.0000    0.0000 H   0  0  0  0  0  0  0  0  0  0  0  0
    0.0000    0.0000    0.0000 H   0  0  0  0  0  0  0  0  0  0  0  0
    0.0000    0.0000    0.0000 H   0  0  0  0  0  0  0  0  0  0  0  0
    0.0000    0.0000    0.0000 H   0  0  0  0  0  0  0  0  0  0  0  0
   10.8442    5.1786   10.4665 C   0  0  0  0  0  0  0  0  0  0  0  0
    9.4647    5.2776   10.8425 C   0  0  0  0  0  0  0  0  0  0  0  0
   11.2846    4.7555    9.4639 O   0  0  0  0  0  0  0  0  0  0  0  0
    8.9836    6.2052   10.4734 H   0  0  0  0  0  0  0  0  0  0  0  0
    8.8806    4.3827   10.5046 H   0  0  0  0  0  0  0  0  0  0  0  0
    9.2796    5.2996   11.9583 H   0  0  0  0  0  0  0  0  0  0  0  0
  1  3  2  0
  1  4  1  0
  2  4  1  0
  1  5  1  0
  2  6  1  0
  5  6  1  0
  6  7  2  3
  5  8  1  0
  4 10  1  0
 10 11  2  0
 11 12  1  0
 12 13  2  0
 13 14  1  0
 10 15  1  0
 14 15  2  0
  9 16  2  0
  9 17  1  0
 14 18  1  0
 17 18  2  0
 18 19  1  0
 16 20  1  0
 19 20  2  0
  2 21  1  0
  7 22  1  0
  8 23  1  0
  8 24  1  0
  8 25  1  0
 11 26  1  0
 12 27  1  0
 13 28  1  0
 15 29  1  0
 16 30  1  0
 17 31  1  0
 19 32  1  0
 20 33  1  0
 34 35  1  0
 34 36  2  0
 35 37  1  0
 35 38  1  0
 35 39  1  0
  4 34  1  6
M  END
>  <attachment_point>  (35) 
21

>  <score>  (35) 
<NA>

$$$$
4djw
     RDKit          3D

 44 47  0  0  0  0  0  0  0  0999 V2000
   22.4950   11.8750   22.5810 C   0  0  0  0  0  0  0  0  0  0  0  0
   22.5380    9.4930   22.4640 N   0  0  0  0  0  0  0  0  0  0  0  0
   22.3600   13.0630   22.3480 O   0  0  0  0  0  0  0  0  0  0  0  0
   22.3390   10.6680   21.5610 C   0  0  2  0  0  0  0  0  0  0  0  0
   22.7860   11.3350   23.8120 N   0  0  0  0  0  0  0  0  0  0  0  0
   22.7800    9.9140   23.7010 C   0  0  0  0  0  0  0  0  0  0  0  0
   22.9970    9.1110   24.7490 N   0  0  0  0  0  0  0  0  0  0  0  0
   23.0220   12.1410   25.0180 C   0  0  0  0  0  0  0  0  0  0  0  0
   29.1260    9.8230   21.7090 N   0  0  0  0  0  0  0  0  0  0  0  0
   23.4880   10.6920   20.5300 C   0  0  0  0  0  0  0  0  0  0  0  0
   23.2110   10.7890   19.1730 C   0  0  0  0  0  0  0  0  0  0  0  0
   24.2350   10.8650   18.2430 C   0  0  0  0  0  0  0  0  0  0  0  0
   25.5500   10.8410   18.6560 C   0  0  0  0  0  0  0  0  0  0  0  0
   25.8710   10.7460   20.0070 C   0  0  0  0  0  0  0  0  0  0  0  0
   24.8260   10.6610   20.9430 C   0  0  0  0  0  0  0  0  0  0  0  0
   29.8540   10.9130   21.4510 C   0  0  0  0  0  0  0  0  0  0  0  0
   27.8830    9.7800   21.2080 C   0  0  0  0  0  0  0  0  0  0  0  0
   27.3000   10.8010   20.4650 C   0  0  0  0  0  0  0  0  0  0  0  0
   28.0930   11.9190   20.2200 C   0  0  0  0  0  0  0  0  0  0  0  0
   29.3850   11.9780   20.7130 C   0  0  0  0  0  0  0  0  0  0  0  0
    0.0000    0.0000    0.0000 H   0  0  0  0  0  0  0  0  0  0  0  0
    0.0000    0.0000    0.0000 H   0  0  0  0  0  0  0  0  0  0  0  0
    0.0000    0.0000    0.0000 H   0  0  0  0  0  0  0  0  0  0  0  0
    0.0000    0.0000    0.0000 H   0  0  0  0  0  0  0  0  0  0  0  0
    0.0000    0.0000    0.0000 H   0  0  0  0  0  0  0  0  0  0  0  0
    0.0000    0.0000    0.0000 H   0  0  0  0  0  0  0  0  0  0  0  0
    0.0000    0.0000    0.0000 H   0  0  0  0  0  0  0  0  0  0  0  0
    0.0000    0.0000    0.0000 H   0  0  0  0  0  0  0  0  0  0  0  0
    0.0000    0.0000    0.0000 H   0  0  0  0  0  0  0  0  0  0  0  0
    0.0000    0.0000    0.0000 H   0  0  0  0  0  0  0  0  0  0  0  0
    0.0000    0.0000    0.0000 H   0  0  0  0  0  0  0  0  0  0  0  0
    0.0000    0.0000    0.0000 H   0  0  0  0  0  0  0  0  0  0  0  0
    0.0000    0.0000    0.0000 H   0  0  0  0  0  0  0  0  0  0  0  0
   10.8611    5.1867   10.4828 C   0  0  0  0  0  0  0  0  0  0  0  0
    9.8513    4.3546   10.8892 C   0  0  0  0  0  0  0  0  0  0  0  0
    8.9384    3.9419    9.9168 C   0  0  0  0  0  0  0  0  0  0  0  0
    9.0389    4.3461    8.6072 C   0  0  0  0  0  0  0  0  0  0  0  0
    7.8395    3.7742    7.4461 Cl  0  0  0  0  0  0  0  0  0  0  0  0
   10.0643    5.1747    8.2594 C   0  0  0  0  0  0  0  0  0  0  0  0
   10.9983    5.6143    9.1859 C   0  0  0  0  0  0  0  0  0  0  0  0
    9.7694    4.0367   11.9114 H   0  0  0  0  0  0  0  0  0  0  0  0
    8.1472    3.2830   10.2624 H   0  0  0  0  0  0  0  0  0  0  0  0
   10.1357    5.4864    7.2321 H   0  0  0  0  0  0  0  0  0  0  0  0
   11.7858    6.2640    8.8660 H   0  0  0  0  0  0  0  0  0  0  0  0
  1  3  2  0
  1  4  1  0
  2  4  1  0
  1  5  1  0
  2  6  1  0
  5  6  1  0
  6  7  2  3
  5  8  1  0
  4 10  1  6
 10 11  2  0
 11 12  1  0
 12 13  2  0
 13 14  1  0
 10 15  1  0
 14 15  2  0
  9 16  2  0
  9 17  1  0
 14 18  1  0
 17 18  2  0
 18 19  1  0
 16 20  1  0
 19 20  2  0
  2 21  1  0
  7 22  1  0
  8 23  1  0
  8 24  1  0
  8 25  1  0
 11 26  1  0
 12 27  1  0
 13 28  1  0
 15 29  1  0
 16 30  1  0
 17 31  1  0
 19 32  1  0
 20 33  1  0
 34 35  2  0
 35 36  1  0
 36 37  2  0
 37 38  1  0
 37 39  1  0
 39 40  2  0
 40 34  1  0
 35 41  1  0
 36 42  1  0
 39 43  1  0
 40 44  1  0
  4 34  1  0
M  END
>  <attachment_point>  (36) 
21

>  <score>  (36) 
<NA>

$$$$
4djw
     RDKit          3D

 51 54  0  0  0  0  0  0  0  0999 V2000
   22.4950   11.8750   22.5810 C   0  0  0  0  0  0  0  0  0  0  0  0
   22.5380    9.4930   22.4640 N   0  0  0  0  0  0  0  0  0  0  0  0
   22.3600   13.0630   22.3480 O   0  0  0  0  0  0  0  0  0  0  0  0
   22.3390   10.6680   21.5610 C   0  0  2  0  0  0  0  0  0  0  0  0
   22.7860   11.3350   23.8120 N   0  0  0  0  0  0  0  0  0  0  0  0
   22.7800    9.9140   23.7010 C   0  0  0  0  0  0  0  0  0  0  0  0
   22.9970    9.1110   24.7490 N   0  0  0  0  0  0  0  0  0  0  0  0
   23.0220   12.1410   25.0180 C   0  0  0  0  0  0  0  0  0  0  0  0
   29.1260    9.8230   21.7090 N   0  0  0  0  0  0  0  0  0  0  0  0
   23.4880   10.6920   20.5300 C   0  0  0  0  0  0  0  0  0  0  0  0
   23.2110   10.7890   19.1730 C   0  0  0  0  0  0  0  0  0  0  0  0
   24.2350   10.8650   18.2430 C   0  0  0  0  0  0  0  0  0  0  0  0
   25.5500   10.8410   18.6560 C   0  0  0  0  0  0  0  0  0  0  0  0
   25.8710   10.7460   20.0070 C   0  0  0  0  0  0  0  0  0  0  0  0
   24.8260   10.6610   20.9430 C   0  0  0  0  0  0  0  0  0  0  0  0
   29.8540   10.9130   21.4510 C   0  0  0  0  0  0  0  0  0  0  0  0
   27.8830    9.7800   21.2080 C   0  0  0  0  0  0  0  0  0  0  0  0
   27.3000   10.8010   20.4650 C   0  0  0  0  0  0  0  0  0  0  0  0
   28.0930   11.9190   20.2200 C   0  0  0  0  0  0  0  0  0  0  0  0
   29.3850   11.9780   20.7130 C   0  0  0  0  0  0  0  0  0  0  0  0
    0.0000    0.0000    0.0000 H   0  0  0  0  0  0  0  0  0  0  0  0
    0.0000    0.0000    0.0000 H   0  0  0  0  0  0  0  0  0  0  0  0
    0.0000    0.0000    0.0000 H   0  0  0  0  0  0  0  0  0  0  0  0
    0.0000    0.0000    0.0000 H   0  0  0  0  0  0  0  0  0  0  0  0
    0.0000    0.0000    0.0000 H   0  0  0  0  0  0  0  0  0  0  0  0
    0.0000    0.0000    0.0000 H   0  0  0  0  0  0  0  0  0  0  0  0
    0.0000    0.0000    0.0000 H   0  0  0  0  0  0  0  0  0  0  0  0
    0.0000    0.0000    0.0000 H   0  0  0  0  0  0  0  0  0  0  0  0
    0.0000    0.0000    0.0000 H   0  0  0  0  0  0  0  0  0  0  0  0
    0.0000    0.0000    0.0000 H   0  0  0  0  0  0  0  0  0  0  0  0
    0.0000    0.0000    0.0000 H   0  0  0  0  0  0  0  0  0  0  0  0
    0.0000    0.0000    0.0000 H   0  0  0  0  0  0  0  0  0  0  0  0
    0.0000    0.0000    0.0000 H   0  0  0  0  0  0  0  0  0  0  0  0
   10.9180    5.2139   10.5378 N   0  0  0  0  0  0  0  0  0  0  0  0
   10.0841    6.2167    9.9961 C   0  0  0  0  0  0  0  0  0  0  0  0
    9.0223    5.7356    9.0570 C   0  0  0  0  0  0  0  0  0  0  0  0
    9.0855    4.3075    8.8635 N   0  0  0  0  0  0  0  0  0  0  0  0
    7.9485    3.8603    8.0901 C   0  0  0  0  0  0  0  0  0  0  0  0
    9.1121    3.6007   10.0984 C   0  0  0  0  0  0  0  0  0  0  0  0
   10.2907    4.0031   10.9304 C   0  0  0  0  0  0  0  0  0  0  0  0
   10.7373    6.9564    9.4521 H   0  0  0  0  0  0  0  0  0  0  0  0
    9.6180    6.8154   10.8186 H   0  0  0  0  0  0  0  0  0  0  0  0
    9.1527    6.1952    8.0400 H   0  0  0  0  0  0  0  0  0  0  0  0
    8.0157    6.0835    9.3946 H   0  0  0  0  0  0  0  0  0  0  0  0
    8.2529    2.8965    7.6142 H   0  0  0  0  0  0  0  0  0  0  0  0
    7.1436    3.5963    8.8218 H   0  0  0  0  0  0  0  0  0  0  0  0
    7.6127    4.6118    7.3542 H   0  0  0  0  0  0  0  0  0  0  0  0
    9.1321    2.5017    9.8566 H   0  0  0  0  0  0  0  0  0  0  0  0
    8.1333    3.7573   10.6089 H   0  0  0  0  0  0  0  0  0  0  0  0
   11.0560    3.1787   10.8188 H   0  0  0  0  0  0  0  0  0  0  0  0
    9.9840    3.9646   11.9910 H   0  0  0  0  0  0  0  0  0  0  0  0
  1  3  2  0
  1  4  1  0
  2  4  1  0
  1  5  1  0
  2  6  1  0
  5  6  1  0
  6  7  2  3
  5  8  1  0
  4 10  1  0
 10 11  2  0
 11 12  1  0
 12 13  2  0
 13 14  1  0
 10 15  1  0
 14 15  2  0
  9 16  2  0
  9 17  1  0
 14 18  1  0
 17 18  2  0
 18 19  1  0
 16 20  1  0
 19 20  2  0
  2 21  1  0
  7 22  1  0
  8 23  1  0
  8 24  1  0
  8 25  1  0
 11 26  1  0
 12 27  1  0
 13 28  1  0
 15 29  1  0
 16 30  1  0
 17 31  1  0
 19 32  1  0
 20 33  1  0
 34 35  1  0
 35 36  1  0
 36 37  1  0
 37 38  1  0
 37 39  1  0
 39 40  1  0
 40 34  1  0
 35 41  1  0
 35 42  1  0
 36 43  1  0
 36 44  1  0
 38 45  1  0
 38 46  1  0
 38 47  1  0
 39 48  1  0
 39 49  1  0
 40 50  1  0
 40 51  1  0
  4 34  1  6
M  END
>  <attachment_point>  (37) 
21

>  <score>  (37) 
<NA>

$$$$
4djw
     RDKit          3D

 48 51  0  0  0  0  0  0  0  0999 V2000
   22.4950   11.8750   22.5810 C   0  0  0  0  0  0  0  0  0  0  0  0
   22.5380    9.4930   22.4640 N   0  0  0  0  0  0  0  0  0  0  0  0
   22.3600   13.0630   22.3480 O   0  0  0  0  0  0  0  0  0  0  0  0
   22.3390   10.6680   21.5610 C   0  0  2  0  0  0  0  0  0  0  0  0
   22.7860   11.3350   23.8120 N   0  0  0  0  0  0  0  0  0  0  0  0
   22.7800    9.9140   23.7010 C   0  0  0  0  0  0  0  0  0  0  0  0
   22.9970    9.1110   24.7490 N   0  0  0  0  0  0  0  0  0  0  0  0
   23.0220   12.1410   25.0180 C   0  0  0  0  0  0  0  0  0  0  0  0
   29.1260    9.8230   21.7090 N   0  0  0  0  0  0  0  0  0  0  0  0
   23.4880   10.6920   20.5300 C   0  0  0  0  0  0  0  0  0  0  0  0
   23.2110   10.7890   19.1730 C   0  0  0  0  0  0  0  0  0  0  0  0
   24.2350   10.8650   18.2430 C   0  0  0  0  0  0  0  0  0  0  0  0
   25.5500   10.8410   18.6560 C   0  0  0  0  0  0  0  0  0  0  0  0
   25.8710   10.7460   20.0070 C   0  0  0  0  0  0  0  0  0  0  0  0
   24.8260   10.6610   20.9430 C   0  0  0  0  0  0  0  0  0  0  0  0
   29.8540   10.9130   21.4510 C   0  0  0  0  0  0  0  0  0  0  0  0
   27.8830    9.7800   21.2080 C   0  0  0  0  0  0  0  0  0  0  0  0
   27.3000   10.8010   20.4650 C   0  0  0  0  0  0  0  0  0  0  0  0
   28.0930   11.9190   20.2200 C   0  0  0  0  0  0  0  0  0  0  0  0
   29.3850   11.9780   20.7130 C   0  0  0  0  0  0  0  0  0  0  0  0
    0.0000    0.0000    0.0000 H   0  0  0  0  0  0  0  0  0  0  0  0
    0.0000    0.0000    0.0000 H   0  0  0  0  0  0  0  0  0  0  0  0
    0.0000    0.0000    0.0000 H   0  0  0  0  0  0  0  0  0  0  0  0
    0.0000    0.0000    0.0000 H   0  0  0  0  0  0  0  0  0  0  0  0
    0.0000    0.0000    0.0000 H   0  0  0  0  0  0  0  0  0  0  0  0
    0.0000    0.0000    0.0000 H   0  0  0  0  0  0  0  0  0  0  0  0
    0.0000    0.0000    0.0000 H   0  0  0  0  0  0  0  0  0  0  0  0
    0.0000    0.0000    0.0000 H   0  0  0  0  0  0  0  0  0  0  0  0
    0.0000    0.0000    0.0000 H   0  0  0  0  0  0  0  0  0  0  0  0
    0.0000    0.0000    0.0000 H   0  0  0  0  0  0  0  0  0  0  0  0
    0.0000    0.0000    0.0000 H   0  0  0  0  0  0  0  0  0  0  0  0
    0.0000    0.0000    0.0000 H   0  0  0  0  0  0  0  0  0  0  0  0
    0.0000    0.0000    0.0000 H   0  0  0  0  0  0  0  0  0  0  0  0
   10.8463    5.1797   10.4686 O   0  0  0  0  0  0  0  0  0  0  0  0
   10.2977    4.2046   11.3038 C   0  0  0  0  0  0  0  0  0  0  0  0
   11.3137    3.1983   11.7117 C   0  0  0  0  0  0  0  0  0  0  0  0
   12.0897    3.3334   12.8398 C   0  0  0  0  0  0  0  0  0  0  0  0
   13.0224    2.3593   13.1686 C   0  0  0  0  0  0  0  0  0  0  0  0
   13.2169    1.2306   12.4010 C   0  0  0  0  0  0  0  0  0  0  0  0
   12.4363    1.1010   11.2718 C   0  0  0  0  0  0  0  0  0  0  0  0
   11.5071    2.0701   10.9429 C   0  0  0  0  0  0  0  0  0  0  0  0
    9.5178    3.6940   10.7331 H   0  0  0  0  0  0  0  0  0  0  0  0
    9.8917    4.7227   12.2012 H   0  0  0  0  0  0  0  0  0  0  0  0
   11.9374    4.2133   13.4375 H   0  0  0  0  0  0  0  0  0  0  0  0
   13.6346    2.4631   14.0560 H   0  0  0  0  0  0  0  0  0  0  0  0
   13.9487    0.4705   12.6629 H   0  0  0  0  0  0  0  0  0  0  0  0
   12.5770    0.2080   10.6474 H   0  0  0  0  0  0  0  0  0  0  0  0
   10.8985    1.9424   10.0383 H   0  0  0  0  0  0  0  0  0  0  0  0
  1  3  2  0
  1  4  1  0
  2  4  1  0
  1  5  1  0
  2  6  1  0
  5  6  1  0
  6  7  2  3
  5  8  1  0
  4 10  1  0
 10 11  2  0
 11 12  1  0
 12 13  2  0
 13 14  1  0
 10 15  1  0
 14 15  2  0
  9 16  2  0
  9 17  1  0
 14 18  1  0
 17 18  2  0
 18 19  1  0
 16 20  1  0
 19 20  2  0
  2 21  1  0
  7 22  1  0
  8 23  1  0
  8 24  1  0
  8 25  1  0
 11 26  1  0
 12 27  1  0
 13 28  1  0
 15 29  1  0
 16 30  1  0
 17 31  1  0
 19 32  1  0
 20 33  1  0
 34 35  1  0
 35 36  1  0
 36 37  2  0
 37 38  1  0
 38 39  2  0
 39 40  1  0
 40 41  2  0
 41 36  1  0
 35 42  1  0
 35 43  1  0
 37 44  1  0
 38 45  1  0
 39 46  1  0
 40 47  1  0
 41 48  1  0
  4 34  1  6
M  END
>  <attachment_point>  (38) 
21

>  <score>  (38) 
<NA>

$$$$
4djw
     RDKit          3D

 39 41  0  0  0  0  0  0  0  0999 V2000
   22.4950   11.8750   22.5810 C   0  0  0  0  0  0  0  0  0  0  0  0
   22.5380    9.4930   22.4640 N   0  0  0  0  0  0  0  0  0  0  0  0
   22.3600   13.0630   22.3480 O   0  0  0  0  0  0  0  0  0  0  0  0
   22.3390   10.6680   21.5610 C   0  0  2  0  0  0  0  0  0  0  0  0
   22.7860   11.3350   23.8120 N   0  0  0  0  0  0  0  0  0  0  0  0
   22.7800    9.9140   23.7010 C   0  0  0  0  0  0  0  0  0  0  0  0
   22.9970    9.1110   24.7490 N   0  0  0  0  0  0  0  0  0  0  0  0
   23.0220   12.1410   25.0180 C   0  0  0  0  0  0  0  0  0  0  0  0
   29.1260    9.8230   21.7090 N   0  0  0  0  0  0  0  0  0  0  0  0
   23.4880   10.6920   20.5300 C   0  0  0  0  0  0  0  0  0  0  0  0
   23.2110   10.7890   19.1730 C   0  0  0  0  0  0  0  0  0  0  0  0
   24.2350   10.8650   18.2430 C   0  0  0  0  0  0  0  0  0  0  0  0
   25.5500   10.8410   18.6560 C   0  0  0  0  0  0  0  0  0  0  0  0
   25.8710   10.7460   20.0070 C   0  0  0  0  0  0  0  0  0  0  0  0
   24.8260   10.6610   20.9430 C   0  0  0  0  0  0  0  0  0  0  0  0
   29.8540   10.9130   21.4510 C   0  0  0  0  0  0  0  0  0  0  0  0
   27.8830    9.7800   21.2080 C   0  0  0  0  0  0  0  0  0  0  0  0
   27.3000   10.8010   20.4650 C   0  0  0  0  0  0  0  0  0  0  0  0
   28.0930   11.9190   20.2200 C   0  0  0  0  0  0  0  0  0  0  0  0
   29.3850   11.9780   20.7130 C   0  0  0  0  0  0  0  0  0  0  0  0
    0.0000    0.0000    0.0000 H   0  0  0  0  0  0  0  0  0  0  0  0
    0.0000    0.0000    0.0000 H   0  0  0  0  0  0  0  0  0  0  0  0
    0.0000    0.0000    0.0000 H   0  0  0  0  0  0  0  0  0  0  0  0
    0.0000    0.0000    0.0000 H   0  0  0  0  0  0  0  0  0  0  0  0
    0.0000    0.0000    0.0000 H   0  0  0  0  0  0  0  0  0  0  0  0
    0.0000    0.0000    0.0000 H   0  0  0  0  0  0  0  0  0  0  0  0
    0.0000    0.0000    0.0000 H   0  0  0  0  0  0  0  0  0  0  0  0
    0.0000    0.0000    0.0000 H   0  0  0  0  0  0  0  0  0  0  0  0
    0.0000    0.0000    0.0000 H   0  0  0  0  0  0  0  0  0  0  0  0
    0.0000    0.0000    0.0000 H   0  0  0  0  0  0  0  0  0  0  0  0
    0.0000    0.0000    0.0000 H   0  0  0  0  0  0  0  0  0  0  0  0
    0.0000    0.0000    0.0000 H   0  0  0  0  0  0  0  0  0  0  0  0
    0.0000    0.0000    0.0000 H   0  0  0  0  0  0  0  0  0  0  0  0
   10.7341    5.1261   10.3603 C   0  0  0  0  0  0  0  0  0  0  0  0
   11.7621    4.7303    9.5229 N   0  0  0  0  0  0  0  0  0  0  0  0
   10.4326    4.4781   11.1552 H   0  0  0  0  0  0  0  0  0  0  0  0
   10.4199    6.1603   10.3817 H   0  0  0  0  0  0  0  0  0  0  0  0
   12.4838    4.0953    9.8590 H   0  0  0  0  0  0  0  0  0  0  0  0
   11.7719    5.0140    8.5569 H   0  0  0  0  0  0  0  0  0  0  0  0
  1  3  2  0
  1  4  1  0
  2  4  1  0
  1  5  1  0
  2  6  1  0
  5  6  1  0
  6  7  2  3
  5  8  1  0
  4 10  1  0
 10 11  2  0
 11 12  1  0
 12 13  2  0
 13 14  1  0
 10 15  1  0
 14 15  2  0
  9 16  2  0
  9 17  1  0
 14 18  1  0
 17 18  2  0
 18 19  1  0
 16 20  1  0
 19 20  2  0
  2 21  1  0
  7 22  1  0
  8 23  1  0
  8 24  1  0
  8 25  1  0
 11 26  1  0
 12 27  1  0
 13 28  1  0
 15 29  1  0
 16 30  1  0
 17 31  1  0
 19 32  1  0
 20 33  1  0
 34 35  1  0
 34 36  1  0
 34 37  1  0
 35 38  1  0
 35 39  1  0
  4 34  1  6
M  END
>  <attachment_point>  (39) 
21

>  <score>  (39) 
<NA>

$$$$
4djw
     RDKit          3D

 50 53  0  0  0  0  0  0  0  0999 V2000
   22.4950   11.8750   22.5810 C   0  0  0  0  0  0  0  0  0  0  0  0
   22.5380    9.4930   22.4640 N   0  0  0  0  0  0  0  0  0  0  0  0
   22.3600   13.0630   22.3480 O   0  0  0  0  0  0  0  0  0  0  0  0
   22.3390   10.6680   21.5610 C   0  0  2  0  0  0  0  0  0  0  0  0
   22.7860   11.3350   23.8120 N   0  0  0  0  0  0  0  0  0  0  0  0
   22.7800    9.9140   23.7010 C   0  0  0  0  0  0  0  0  0  0  0  0
   22.9970    9.1110   24.7490 N   0  0  0  0  0  0  0  0  0  0  0  0
   23.0220   12.1410   25.0180 C   0  0  0  0  0  0  0  0  0  0  0  0
   29.1260    9.8230   21.7090 N   0  0  0  0  0  0  0  0  0  0  0  0
   23.4880   10.6920   20.5300 C   0  0  0  0  0  0  0  0  0  0  0  0
   23.2110   10.7890   19.1730 C   0  0  0  0  0  0  0  0  0  0  0  0
   24.2350   10.8650   18.2430 C   0  0  0  0  0  0  0  0  0  0  0  0
   25.5500   10.8410   18.6560 C   0  0  0  0  0  0  0  0  0  0  0  0
   25.8710   10.7460   20.0070 C   0  0  0  0  0  0  0  0  0  0  0  0
   24.8260   10.6610   20.9430 C   0  0  0  0  0  0  0  0  0  0  0  0
   29.8540   10.9130   21.4510 C   0  0  0  0  0  0  0  0  0  0  0  0
   27.8830    9.7800   21.2080 C   0  0  0  0  0  0  0  0  0  0  0  0
   27.3000   10.8010   20.4650 C   0  0  0  0  0  0  0  0  0  0  0  0
   28.0930   11.9190   20.2200 C   0  0  0  0  0  0  0  0  0  0  0  0
   29.3850   11.9780   20.7130 C   0  0  0  0  0  0  0  0  0  0  0  0
    0.0000    0.0000    0.0000 H   0  0  0  0  0  0  0  0  0  0  0  0
    0.0000    0.0000    0.0000 H   0  0  0  0  0  0  0  0  0  0  0  0
    0.0000    0.0000    0.0000 H   0  0  0  0  0  0  0  0  0  0  0  0
    0.0000    0.0000    0.0000 H   0  0  0  0  0  0  0  0  0  0  0  0
    0.0000    0.0000    0.0000 H   0  0  0  0  0  0  0  0  0  0  0  0
    0.0000    0.0000    0.0000 H   0  0  0  0  0  0  0  0  0  0  0  0
    0.0000    0.0000    0.0000 H   0  0  0  0  0  0  0  0  0  0  0  0
    0.0000    0.0000    0.0000 H   0  0  0  0  0  0  0  0  0  0  0  0
    0.0000    0.0000    0.0000 H   0  0  0  0  0  0  0  0  0  0  0  0
    0.0000    0.0000    0.0000 H   0  0  0  0  0  0  0  0  0  0  0  0
    0.0000    0.0000    0.0000 H   0  0  0  0  0  0  0  0  0  0  0  0
    0.0000    0.0000    0.0000 H   0  0  0  0  0  0  0  0  0  0  0  0
    0.0000    0.0000    0.0000 H   0  0  0  0  0  0  0  0  0  0  0  0
   10.8798    5.1956   10.5008 C   0  0  0  0  0  0  0  0  0  0  0  0
   10.6512    3.7080   10.7727 C   0  0  0  0  0  0  0  0  0  0  0  0
   10.1578    3.5130   12.1582 C   0  0  0  0  0  0  0  0  0  0  0  0
   11.0142    3.3159   13.2255 C   0  0  0  0  0  0  0  0  0  0  0  0
   10.5137    3.1383   14.5000 C   0  0  0  0  0  0  0  0  0  0  0  0
    9.1624    3.1471   14.7739 C   0  0  0  0  0  0  0  0  0  0  0  0
    8.3074    3.3437   13.7096 C   0  0  0  0  0  0  0  0  0  0  0  0
    8.8049    3.5220   12.4325 C   0  0  0  0  0  0  0  0  0  0  0  0
    9.9422    5.7576   10.5324 H   0  0  0  0  0  0  0  0  0  0  0  0
   11.3389    5.2536    9.4985 H   0  0  0  0  0  0  0  0  0  0  0  0
    9.8956    3.3525   10.0302 H   0  0  0  0  0  0  0  0  0  0  0  0
   11.6078    3.2015   10.5735 H   0  0  0  0  0  0  0  0  0  0  0  0
   12.0720    3.3046   13.0386 H   0  0  0  0  0  0  0  0  0  0  0  0
   11.1710    2.9800   15.3644 H   0  0  0  0  0  0  0  0  0  0  0  0
    8.7887    3.0054   15.7848 H   0  0  0  0  0  0  0  0  0  0  0  0
    7.2421    3.3547   13.8997 H   0  0  0  0  0  0  0  0  0  0  0  0
    8.1298    3.6783   11.5847 H   0  0  0  0  0  0  0  0  0  0  0  0
  1  3  2  0
  1  4  1  0
  2  4  1  0
  1  5  1  0
  2  6  1  0
  5  6  1  0
  6  7  2  3
  5  8  1  0
  4 10  1  0
 10 11  2  0
 11 12  1  0
 12 13  2  0
 13 14  1  0
 10 15  1  0
 14 15  2  0
  9 16  2  0
  9 17  1  0
 14 18  1  0
 17 18  2  0
 18 19  1  0
 16 20  1  0
 19 20  2  0
  2 21  1  0
  7 22  1  0
  8 23  1  0
  8 24  1  0
  8 25  1  0
 11 26  1  0
 12 27  1  0
 13 28  1  0
 15 29  1  0
 16 30  1  0
 17 31  1  0
 19 32  1  0
 20 33  1  0
 34 35  1  0
 35 36  1  0
 36 37  2  0
 37 38  1  0
 38 39  2  0
 39 40  1  0
 40 41  2  0
 41 36  1  0
 34 42  1  0
 34 43  1  0
 35 44  1  0
 35 45  1  0
 37 46  1  0
 38 47  1  0
 39 48  1  0
 40 49  1  0
 41 50  1  0
  4 34  1  6
M  END
>  <attachment_point>  (40) 
21

>  <score>  (40) 
<NA>

$$$$
4djw
     RDKit          3D

 49 52  0  0  0  0  0  0  0  0999 V2000
   22.4950   11.8750   22.5810 C   0  0  0  0  0  0  0  0  0  0  0  0
   22.5380    9.4930   22.4640 N   0  0  0  0  0  0  0  0  0  0  0  0
   22.3600   13.0630   22.3480 O   0  0  0  0  0  0  0  0  0  0  0  0
   22.3390   10.6680   21.5610 C   0  0  2  0  0  0  0  0  0  0  0  0
   22.7860   11.3350   23.8120 N   0  0  0  0  0  0  0  0  0  0  0  0
   22.7800    9.9140   23.7010 C   0  0  0  0  0  0  0  0  0  0  0  0
   22.9970    9.1110   24.7490 N   0  0  0  0  0  0  0  0  0  0  0  0
   23.0220   12.1410   25.0180 C   0  0  0  0  0  0  0  0  0  0  0  0
   29.1260    9.8230   21.7090 N   0  0  0  0  0  0  0  0  0  0  0  0
   23.4880   10.6920   20.5300 C   0  0  0  0  0  0  0  0  0  0  0  0
   23.2110   10.7890   19.1730 C   0  0  0  0  0  0  0  0  0  0  0  0
   24.2350   10.8650   18.2430 C   0  0  0  0  0  0  0  0  0  0  0  0
   25.5500   10.8410   18.6560 C   0  0  0  0  0  0  0  0  0  0  0  0
   25.8710   10.7460   20.0070 C   0  0  0  0  0  0  0  0  0  0  0  0
   24.8260   10.6610   20.9430 C   0  0  0  0  0  0  0  0  0  0  0  0
   29.8540   10.9130   21.4510 C   0  0  0  0  0  0  0  0  0  0  0  0
   27.8830    9.7800   21.2080 C   0  0  0  0  0  0  0  0  0  0  0  0
   27.3000   10.8010   20.4650 C   0  0  0  0  0  0  0  0  0  0  0  0
   28.0930   11.9190   20.2200 C   0  0  0  0  0  0  0  0  0  0  0  0
   29.3850   11.9780   20.7130 C   0  0  0  0  0  0  0  0  0  0  0  0
    0.0000    0.0000    0.0000 H   0  0  0  0  0  0  0  0  0  0  0  0
    0.0000    0.0000    0.0000 H   0  0  0  0  0  0  0  0  0  0  0  0
    0.0000    0.0000    0.0000 H   0  0  0  0  0  0  0  0  0  0  0  0
    0.0000    0.0000    0.0000 H   0  0  0  0  0  0  0  0  0  0  0  0
    0.0000    0.0000    0.0000 H   0  0  0  0  0  0  0  0  0  0  0  0
    0.0000    0.0000    0.0000 H   0  0  0  0  0  0  0  0  0  0  0  0
    0.0000    0.0000    0.0000 H   0  0  0  0  0  0  0  0  0  0  0  0
    0.0000    0.0000    0.0000 H   0  0  0  0  0  0  0  0  0  0  0  0
    0.0000    0.0000    0.0000 H   0  0  0  0  0  0  0  0  0  0  0  0
    0.0000    0.0000    0.0000 H   0  0  0  0  0  0  0  0  0  0  0  0
    0.0000    0.0000    0.0000 H   0  0  0  0  0  0  0  0  0  0  0  0
    0.0000    0.0000    0.0000 H   0  0  0  0  0  0  0  0  0  0  0  0
    0.0000    0.0000    0.0000 H   0  0  0  0  0  0  0  0  0  0  0  0
   10.8554    5.1840   10.4774 N   0  0  0  0  0  0  0  0  0  0  0  0
    9.8328    4.6694   11.2737 C   0  0  0  0  0  0  0  0  0  0  0  0
    9.1619    3.4205   10.8031 C   0  0  0  0  0  0  0  0  0  0  0  0
   10.1383    2.4167   10.2468 C   0  0  0  0  0  0  0  0  0  0  0  0
   10.9351    3.0804    9.1783 C   0  0  0  0  0  0  0  0  0  0  0  0
   11.4771    4.4119    9.4997 C   0  0  0  0  0  0  0  0  0  0  0  0
    9.0203    5.4521   11.3659 H   0  0  0  0  0  0  0  0  0  0  0  0
   10.1286    4.4844   12.3495 H   0  0  0  0  0  0  0  0  0  0  0  0
    8.4263    3.6691   10.0295 H   0  0  0  0  0  0  0  0  0  0  0  0
    8.6453    2.9261   11.6749 H   0  0  0  0  0  0  0  0  0  0  0  0
    9.5122    1.6219    9.7457 H   0  0  0  0  0  0  0  0  0  0  0  0
   10.7852    1.9571   10.9930 H   0  0  0  0  0  0  0  0  0  0  0  0
   11.7492    2.3650    8.8844 H   0  0  0  0  0  0  0  0  0  0  0  0
   10.2813    3.1362    8.2589 H   0  0  0  0  0  0  0  0  0  0  0  0
   11.4947    5.0154    8.5409 H   0  0  0  0  0  0  0  0  0  0  0  0
   12.5761    4.2871    9.7375 H   0  0  0  0  0  0  0  0  0  0  0  0
  1  3  2  0
  1  4  1  0
  2  4  1  0
  1  5  1  0
  2  6  1  0
  5  6  1  0
  6  7  2  3
  5  8  1  0
  4 10  1  0
 10 11  2  0
 11 12  1  0
 12 13  2  0
 13 14  1  0
 10 15  1  0
 14 15  2  0
  9 16  2  0
  9 17  1  0
 14 18  1  0
 17 18  2  0
 18 19  1  0
 16 20  1  0
 19 20  2  0
  2 21  1  0
  7 22  1  0
  8 23  1  0
  8 24  1  0
  8 25  1  0
 11 26  1  0
 12 27  1  0
 13 28  1  0
 15 29  1  0
 16 30  1  0
 17 31  1  0
 19 32  1  0
 20 33  1  0
 34 35  1  0
 35 36  1  0
 36 37  1  0
 37 38  1  0
 38 39  1  0
 39 34  1  0
 35 40  1  0
 35 41  1  0
 36 42  1  0
 36 43  1  0
 37 44  1  0
 37 45  1  0
 38 46  1  0
 38 47  1  0
 39 48  1  0
 39 49  1  0
  4 34  1  6
M  END
>  <attachment_point>  (41) 
21

>  <score>  (41) 
<NA>

$$$$
4djw
     RDKit          3D

 41 44  0  0  0  0  0  0  0  0999 V2000
   22.4950   11.8750   22.5810 C   0  0  0  0  0  0  0  0  0  0  0  0
   22.5380    9.4930   22.4640 N   0  0  0  0  0  0  0  0  0  0  0  0
   22.3600   13.0630   22.3480 O   0  0  0  0  0  0  0  0  0  0  0  0
   22.3390   10.6680   21.5610 C   0  0  2  0  0  0  0  0  0  0  0  0
   22.7860   11.3350   23.8120 N   0  0  0  0  0  0  0  0  0  0  0  0
   22.7800    9.9140   23.7010 C   0  0  0  0  0  0  0  0  0  0  0  0
   22.9970    9.1110   24.7490 N   0  0  0  0  0  0  0  0  0  0  0  0
   23.0220   12.1410   25.0180 C   0  0  0  0  0  0  0  0  0  0  0  0
   29.1260    9.8230   21.7090 N   0  0  0  0  0  0  0  0  0  0  0  0
   23.4880   10.6920   20.5300 C   0  0  0  0  0  0  0  0  0  0  0  0
   23.2110   10.7890   19.1730 C   0  0  0  0  0  0  0  0  0  0  0  0
   24.2350   10.8650   18.2430 C   0  0  0  0  0  0  0  0  0  0  0  0
   25.5500   10.8410   18.6560 C   0  0  0  0  0  0  0  0  0  0  0  0
   25.8710   10.7460   20.0070 C   0  0  0  0  0  0  0  0  0  0  0  0
   24.8260   10.6610   20.9430 C   0  0  0  0  0  0  0  0  0  0  0  0
   29.8540   10.9130   21.4510 C   0  0  0  0  0  0  0  0  0  0  0  0
   27.8830    9.7800   21.2080 C   0  0  0  0  0  0  0  0  0  0  0  0
   27.3000   10.8010   20.4650 C   0  0  0  0  0  0  0  0  0  0  0  0
   28.0930   11.9190   20.2200 C   0  0  0  0  0  0  0  0  0  0  0  0
   29.3850   11.9780   20.7130 C   0  0  0  0  0  0  0  0  0  0  0  0
    0.0000    0.0000    0.0000 H   0  0  0  0  0  0  0  0  0  0  0  0
    0.0000    0.0000    0.0000 H   0  0  0  0  0  0  0  0  0  0  0  0
    0.0000    0.0000    0.0000 H   0  0  0  0  0  0  0  0  0  0  0  0
    0.0000    0.0000    0.0000 H   0  0  0  0  0  0  0  0  0  0  0  0
    0.0000    0.0000    0.0000 H   0  0  0  0  0  0  0  0  0  0  0  0
    0.0000    0.0000    0.0000 H   0  0  0  0  0  0  0  0  0  0  0  0
    0.0000    0.0000    0.0000 H   0  0  0  0  0  0  0  0  0  0  0  0
    0.0000    0.0000    0.0000 H   0  0  0  0  0  0  0  0  0  0  0  0
    0.0000    0.0000    0.0000 H   0  0  0  0  0  0  0  0  0  0  0  0
    0.0000    0.0000    0.0000 H   0  0  0  0  0  0  0  0  0  0  0  0
    0.0000    0.0000    0.0000 H   0  0  0  0  0  0  0  0  0  0  0  0
    0.0000    0.0000    0.0000 H   0  0  0  0  0  0  0  0  0  0  0  0
    0.0000    0.0000    0.0000 H   0  0  0  0  0  0  0  0  0  0  0  0
   10.8655    5.1888   10.4870 C   0  0  0  0  0  0  0  0  0  0  0  0
   10.1006    6.0303    9.7228 C   0  0  0  0  0  0  0  0  0  0  0  0
    9.2194    5.4522    8.8757 C   0  0  0  0  0  0  0  0  0  0  0  0
    9.1771    4.0812    8.8640 C   0  0  0  0  0  0  0  0  0  0  0  0
   10.3490    3.6436   10.0168 S   0  0  0  0  0  0  0  0  0  0  0  0
   10.2033    7.1497    9.7987 H   0  0  0  0  0  0  0  0  0  0  0  0
    8.5592    6.0812    8.2179 H   0  0  0  0  0  0  0  0  0  0  0  0
    8.5119    3.4656    8.2284 H   0  0  0  0  0  0  0  0  0  0  0  0
  1  3  2  0
  1  4  1  0
  2  4  1  0
  1  5  1  0
  2  6  1  0
  5  6  1  0
  6  7  2  3
  5  8  1  0
  4 10  1  6
 10 11  2  0
 11 12  1  0
 12 13  2  0
 13 14  1  0
 10 15  1  0
 14 15  2  0
  9 16  2  0
  9 17  1  0
 14 18  1  0
 17 18  2  0
 18 19  1  0
 16 20  1  0
 19 20  2  0
  2 21  1  0
  7 22  1  0
  8 23  1  0
  8 24  1  0
  8 25  1  0
 11 26  1  0
 12 27  1  0
 13 28  1  0
 15 29  1  0
 16 30  1  0
 17 31  1  0
 19 32  1  0
 20 33  1  0
 34 35  2  0
 35 36  1  0
 36 37  2  0
 37 38  1  0
 38 34  1  0
 35 39  1  0
 36 40  1  0
 37 41  1  0
  4 34  1  0
M  END
>  <attachment_point>  (42) 
21

>  <score>  (42) 
<NA>

$$$$
4djw
     RDKit          3D

 41 44  0  0  0  0  0  0  0  0999 V2000
   22.4950   11.8750   22.5810 C   0  0  0  0  0  0  0  0  0  0  0  0
   22.5380    9.4930   22.4640 N   0  0  0  0  0  0  0  0  0  0  0  0
   22.3600   13.0630   22.3480 O   0  0  0  0  0  0  0  0  0  0  0  0
   22.3390   10.6680   21.5610 C   0  0  2  0  0  0  0  0  0  0  0  0
   22.7860   11.3350   23.8120 N   0  0  0  0  0  0  0  0  0  0  0  0
   22.7800    9.9140   23.7010 C   0  0  0  0  0  0  0  0  0  0  0  0
   22.9970    9.1110   24.7490 N   0  0  0  0  0  0  0  0  0  0  0  0
   23.0220   12.1410   25.0180 C   0  0  0  0  0  0  0  0  0  0  0  0
   29.1260    9.8230   21.7090 N   0  0  0  0  0  0  0  0  0  0  0  0
   23.4880   10.6920   20.5300 C   0  0  0  0  0  0  0  0  0  0  0  0
   23.2110   10.7890   19.1730 C   0  0  0  0  0  0  0  0  0  0  0  0
   24.2350   10.8650   18.2430 C   0  0  0  0  0  0  0  0  0  0  0  0
   25.5500   10.8410   18.6560 C   0  0  0  0  0  0  0  0  0  0  0  0
   25.8710   10.7460   20.0070 C   0  0  0  0  0  0  0  0  0  0  0  0
   24.8260   10.6610   20.9430 C   0  0  0  0  0  0  0  0  0  0  0  0
   29.8540   10.9130   21.4510 C   0  0  0  0  0  0  0  0  0  0  0  0
   27.8830    9.7800   21.2080 C   0  0  0  0  0  0  0  0  0  0  0  0
   27.3000   10.8010   20.4650 C   0  0  0  0  0  0  0  0  0  0  0  0
   28.0930   11.9190   20.2200 C   0  0  0  0  0  0  0  0  0  0  0  0
   29.3850   11.9780   20.7130 C   0  0  0  0  0  0  0  0  0  0  0  0
    0.0000    0.0000    0.0000 H   0  0  0  0  0  0  0  0  0  0  0  0
    0.0000    0.0000    0.0000 H   0  0  0  0  0  0  0  0  0  0  0  0
    0.0000    0.0000    0.0000 H   0  0  0  0  0  0  0  0  0  0  0  0
    0.0000    0.0000    0.0000 H   0  0  0  0  0  0  0  0  0  0  0  0
    0.0000    0.0000    0.0000 H   0  0  0  0  0  0  0  0  0  0  0  0
    0.0000    0.0000    0.0000 H   0  0  0  0  0  0  0  0  0  0  0  0
    0.0000    0.0000    0.0000 H   0  0  0  0  0  0  0  0  0  0  0  0
    0.0000    0.0000    0.0000 H   0  0  0  0  0  0  0  0  0  0  0  0
    0.0000    0.0000    0.0000 H   0  0  0  0  0  0  0  0  0  0  0  0
    0.0000    0.0000    0.0000 H   0  0  0  0  0  0  0  0  0  0  0  0
    0.0000    0.0000    0.0000 H   0  0  0  0  0  0  0  0  0  0  0  0
    0.0000    0.0000    0.0000 H   0  0  0  0  0  0  0  0  0  0  0  0
    0.0000    0.0000    0.0000 H   0  0  0  0  0  0  0  0  0  0  0  0
   10.8785    5.1950   10.4996 C   0  0  0  0  0  0  0  0  0  0  0  0
    9.8262    4.3002   11.0092 C   0  0  0  0  0  0  0  0  0  0  0  0
   10.8734    3.7169   10.1299 C   0  0  0  0  0  0  0  0  0  0  0  0
   10.7274    5.8998    9.6717 H   0  0  0  0  0  0  0  0  0  0  0  0
    8.7792    4.3458   10.6646 H   0  0  0  0  0  0  0  0  0  0  0  0
    9.9021    3.9826   12.0804 H   0  0  0  0  0  0  0  0  0  0  0  0
   11.7352    3.1674   10.5183 H   0  0  0  0  0  0  0  0  0  0  0  0
   10.5524    3.4541    9.1080 H   0  0  0  0  0  0  0  0  0  0  0  0
  1  3  2  0
  1  4  1  0
  2  4  1  0
  1  5  1  0
  2  6  1  0
  5  6  1  0
  6  7  2  3
  5  8  1  0
  4 10  1  0
 10 11  2  0
 11 12  1  0
 12 13  2  0
 13 14  1  0
 10 15  1  0
 14 15  2  0
  9 16  2  0
  9 17  1  0
 14 18  1  0
 17 18  2  0
 18 19  1  0
 16 20  1  0
 19 20  2  0
  2 21  1  0
  7 22  1  0
  8 23  1  0
  8 24  1  0
  8 25  1  0
 11 26  1  0
 12 27  1  0
 13 28  1  0
 15 29  1  0
 16 30  1  0
 17 31  1  0
 19 32  1  0
 20 33  1  0
 34 35  1  0
 35 36  1  0
 36 34  1  0
 34 37  1  0
 35 38  1  0
 35 39  1  0
 36 40  1  0
 36 41  1  0
  4 34  1  6
M  END
>  <attachment_point>  (43) 
21

>  <score>  (43) 
<NA>

$$$$
4djw
     RDKit          3D

 47 50  0  0  0  0  0  0  0  0999 V2000
   22.4950   11.8750   22.5810 C   0  0  0  0  0  0  0  0  0  0  0  0
   22.5380    9.4930   22.4640 N   0  0  0  0  0  0  0  0  0  0  0  0
   22.3600   13.0630   22.3480 O   0  0  0  0  0  0  0  0  0  0  0  0
   22.3390   10.6680   21.5610 C   0  0  2  0  0  0  0  0  0  0  0  0
   22.7860   11.3350   23.8120 N   0  0  0  0  0  0  0  0  0  0  0  0
   22.7800    9.9140   23.7010 C   0  0  0  0  0  0  0  0  0  0  0  0
   22.9970    9.1110   24.7490 N   0  0  0  0  0  0  0  0  0  0  0  0
   23.0220   12.1410   25.0180 C   0  0  0  0  0  0  0  0  0  0  0  0
   29.1260    9.8230   21.7090 N   0  0  0  0  0  0  0  0  0  0  0  0
   23.4880   10.6920   20.5300 C   0  0  0  0  0  0  0  0  0  0  0  0
   23.2110   10.7890   19.1730 C   0  0  0  0  0  0  0  0  0  0  0  0
   24.2350   10.8650   18.2430 C   0  0  0  0  0  0  0  0  0  0  0  0
   25.5500   10.8410   18.6560 C   0  0  0  0  0  0  0  0  0  0  0  0
   25.8710   10.7460   20.0070 C   0  0  0  0  0  0  0  0  0  0  0  0
   24.8260   10.6610   20.9430 C   0  0  0  0  0  0  0  0  0  0  0  0
   29.8540   10.9130   21.4510 C   0  0  0  0  0  0  0  0  0  0  0  0
   27.8830    9.7800   21.2080 C   0  0  0  0  0  0  0  0  0  0  0  0
   27.3000   10.8010   20.4650 C   0  0  0  0  0  0  0  0  0  0  0  0
   28.0930   11.9190   20.2200 C   0  0  0  0  0  0  0  0  0  0  0  0
   29.3850   11.9780   20.7130 C   0  0  0  0  0  0  0  0  0  0  0  0
    0.0000    0.0000    0.0000 H   0  0  0  0  0  0  0  0  0  0  0  0
    0.0000    0.0000    0.0000 H   0  0  0  0  0  0  0  0  0  0  0  0
    0.0000    0.0000    0.0000 H   0  0  0  0  0  0  0  0  0  0  0  0
    0.0000    0.0000    0.0000 H   0  0  0  0  0  0  0  0  0  0  0  0
    0.0000    0.0000    0.0000 H   0  0  0  0  0  0  0  0  0  0  0  0
    0.0000    0.0000    0.0000 H   0  0  0  0  0  0  0  0  0  0  0  0
    0.0000    0.0000    0.0000 H   0  0  0  0  0  0  0  0  0  0  0  0
    0.0000    0.0000    0.0000 H   0  0  0  0  0  0  0  0  0  0  0  0
    0.0000    0.0000    0.0000 H   0  0  0  0  0  0  0  0  0  0  0  0
    0.0000    0.0000    0.0000 H   0  0  0  0  0  0  0  0  0  0  0  0
    0.0000    0.0000    0.0000 H   0  0  0  0  0  0  0  0  0  0  0  0
    0.0000    0.0000    0.0000 H   0  0  0  0  0  0  0  0  0  0  0  0
    0.0000    0.0000    0.0000 H   0  0  0  0  0  0  0  0  0  0  0  0
   10.8216    5.1679   10.4447 C   0  0  0  0  0  0  0  0  0  0  0  0
    9.5325    5.2724   10.7652 C   0  0  0  0  0  0  0  0  0  0  0  0
    8.5997    4.8076    9.8228 C   0  0  0  0  0  0  0  0  0  0  0  0
    9.0121    4.2727    8.6309 C   0  0  0  0  0  0  0  0  0  0  0  0
    8.0065    3.7853    7.6448 C   0  0  0  0  0  0  0  0  0  0  0  0
   10.3493    4.1797    8.3322 C   0  0  0  0  0  0  0  0  0  0  0  0
   11.2735    4.6542    9.2959 C   0  0  0  0  0  0  0  0  0  0  0  0
    9.1798    5.6909   11.6998 H   0  0  0  0  0  0  0  0  0  0  0  0
    7.5424    4.8637   10.0211 H   0  0  0  0  0  0  0  0  0  0  0  0
    8.2192    4.1584    6.6147 H   0  0  0  0  0  0  0  0  0  0  0  0
    7.9478    2.6782    7.6372 H   0  0  0  0  0  0  0  0  0  0  0  0
    7.0009    4.1981    7.9302 H   0  0  0  0  0  0  0  0  0  0  0  0
   10.6740    3.7647    7.4070 H   0  0  0  0  0  0  0  0  0  0  0  0
   12.3264    4.5808    9.0606 H   0  0  0  0  0  0  0  0  0  0  0  0
  1  3  2  0
  1  4  1  0
  2  4  1  0
  1  5  1  0
  2  6  1  0
  5  6  1  0
  6  7  2  3
  5  8  1  0
  4 10  1  6
 10 11  2  0
 11 12  1  0
 12 13  2  0
 13 14  1  0
 10 15  1  0
 14 15  2  0
  9 16  2  0
  9 17  1  0
 14 18  1  0
 17 18  2  0
 18 19  1  0
 16 20  1  0
 19 20  2  0
  2 21  1  0
  7 22  1  0
  8 23  1  0
  8 24  1  0
  8 25  1  0
 11 26  1  0
 12 27  1  0
 13 28  1  0
 15 29  1  0
 16 30  1  0
 17 31  1  0
 19 32  1  0
 20 33  1  0
 34 35  2  0
 35 36  1  0
 36 37  2  0
 37 38  1  0
 37 39  1  0
 39 40  2  0
 40 34  1  0
 35 41  1  0
 36 42  1  0
 38 43  1  0
 38 44  1  0
 38 45  1  0
 39 46  1  0
 40 47  1  0
  4 34  1  0
M  END
>  <attachment_point>  (44) 
21

>  <score>  (44) 
<NA>

$$$$
4djw
     RDKit          3D

 45 48  0  0  0  0  0  0  0  0999 V2000
   22.4950   11.8750   22.5810 C   0  0  0  0  0  0  0  0  0  0  0  0
   22.5380    9.4930   22.4640 N   0  0  0  0  0  0  0  0  0  0  0  0
   22.3600   13.0630   22.3480 O   0  0  0  0  0  0  0  0  0  0  0  0
   22.3390   10.6680   21.5610 C   0  0  2  0  0  0  0  0  0  0  0  0
   22.7860   11.3350   23.8120 N   0  0  0  0  0  0  0  0  0  0  0  0
   22.7800    9.9140   23.7010 C   0  0  0  0  0  0  0  0  0  0  0  0
   22.9970    9.1110   24.7490 N   0  0  0  0  0  0  0  0  0  0  0  0
   23.0220   12.1410   25.0180 C   0  0  0  0  0  0  0  0  0  0  0  0
   29.1260    9.8230   21.7090 N   0  0  0  0  0  0  0  0  0  0  0  0
   23.4880   10.6920   20.5300 C   0  0  0  0  0  0  0  0  0  0  0  0
   23.2110   10.7890   19.1730 C   0  0  0  0  0  0  0  0  0  0  0  0
   24.2350   10.8650   18.2430 C   0  0  0  0  0  0  0  0  0  0  0  0
   25.5500   10.8410   18.6560 C   0  0  0  0  0  0  0  0  0  0  0  0
   25.8710   10.7460   20.0070 C   0  0  0  0  0  0  0  0  0  0  0  0
   24.8260   10.6610   20.9430 C   0  0  0  0  0  0  0  0  0  0  0  0
   29.8540   10.9130   21.4510 C   0  0  0  0  0  0  0  0  0  0  0  0
   27.8830    9.7800   21.2080 C   0  0  0  0  0  0  0  0  0  0  0  0
   27.3000   10.8010   20.4650 C   0  0  0  0  0  0  0  0  0  0  0  0
   28.0930   11.9190   20.2200 C   0  0  0  0  0  0  0  0  0  0  0  0
   29.3850   11.9780   20.7130 C   0  0  0  0  0  0  0  0  0  0  0  0
    0.0000    0.0000    0.0000 H   0  0  0  0  0  0  0  0  0  0  0  0
    0.0000    0.0000    0.0000 H   0  0  0  0  0  0  0  0  0  0  0  0
    0.0000    0.0000    0.0000 H   0  0  0  0  0  0  0  0  0  0  0  0
    0.0000    0.0000    0.0000 H   0  0  0  0  0  0  0  0  0  0  0  0
    0.0000    0.0000    0.0000 H   0  0  0  0  0  0  0  0  0  0  0  0
    0.0000    0.0000    0.0000 H   0  0  0  0  0  0  0  0  0  0  0  0
    0.0000    0.0000    0.0000 H   0  0  0  0  0  0  0  0  0  0  0  0
    0.0000    0.0000    0.0000 H   0  0  0  0  0  0  0  0  0  0  0  0
    0.0000    0.0000    0.0000 H   0  0  0  0  0  0  0  0  0  0  0  0
    0.0000    0.0000    0.0000 H   0  0  0  0  0  0  0  0  0  0  0  0
    0.0000    0.0000    0.0000 H   0  0  0  0  0  0  0  0  0  0  0  0
    0.0000    0.0000    0.0000 H   0  0  0  0  0  0  0  0  0  0  0  0
    0.0000    0.0000    0.0000 H   0  0  0  0  0  0  0  0  0  0  0  0
   10.7838    5.1498   10.4082 O   0  0  0  0  0  0  0  0  0  0  0  0
   11.4778    5.4247    9.2184 C   0  0  0  0  0  0  0  0  0  0  0  0
   12.1354    4.4083    8.5848 C   0  0  0  0  0  0  0  0  0  0  0  0
   12.8181    4.6749    7.4160 C   0  0  0  0  0  0  0  0  0  0  0  0
   12.8309    5.9467    6.9047 C   0  0  0  0  0  0  0  0  0  0  0  0
   12.1726    7.0060    7.5229 C   0  0  0  0  0  0  0  0  0  0  0  0
   11.4987    6.7086    8.6898 C   0  0  0  0  0  0  0  0  0  0  0  0
   12.1306    3.3905    8.9856 H   0  0  0  0  0  0  0  0  0  0  0  0
   13.3457    3.8621    6.9064 H   0  0  0  0  0  0  0  0  0  0  0  0
   13.3621    6.1587    5.9933 H   0  0  0  0  0  0  0  0  0  0  0  0
   12.1997    7.9959    7.0982 H   0  0  0  0  0  0  0  0  0  0  0  0
   10.9671    7.4942    9.2162 H   0  0  0  0  0  0  0  0  0  0  0  0
  1  3  2  0
  1  4  1  0
  2  4  1  0
  1  5  1  0
  2  6  1  0
  5  6  1  0
  6  7  2  3
  5  8  1  0
  4 10  1  0
 10 11  2  0
 11 12  1  0
 12 13  2  0
 13 14  1  0
 10 15  1  0
 14 15  2  0
  9 16  2  0
  9 17  1  0
 14 18  1  0
 17 18  2  0
 18 19  1  0
 16 20  1  0
 19 20  2  0
  2 21  1  0
  7 22  1  0
  8 23  1  0
  8 24  1  0
  8 25  1  0
 11 26  1  0
 12 27  1  0
 13 28  1  0
 15 29  1  0
 16 30  1  0
 17 31  1  0
 19 32  1  0
 20 33  1  0
 34 35  1  0
 35 36  2  0
 36 37  1  0
 37 38  2  0
 38 39  1  0
 39 40  2  0
 40 35  1  0
 36 41  1  0
 37 42  1  0
 38 43  1  0
 39 44  1  0
 40 45  1  0
  4 34  1  6
M  END
>  <attachment_point>  (45) 
21

>  <score>  (45) 
<NA>

$$$$
4djw
     RDKit          3D

 45 48  0  0  0  0  0  0  0  0999 V2000
   22.4950   11.8750   22.5810 C   0  0  0  0  0  0  0  0  0  0  0  0
   22.5380    9.4930   22.4640 N   0  0  0  0  0  0  0  0  0  0  0  0
   22.3600   13.0630   22.3480 O   0  0  0  0  0  0  0  0  0  0  0  0
   22.3390   10.6680   21.5610 C   0  0  2  0  0  0  0  0  0  0  0  0
   22.7860   11.3350   23.8120 N   0  0  0  0  0  0  0  0  0  0  0  0
   22.7800    9.9140   23.7010 C   0  0  0  0  0  0  0  0  0  0  0  0
   22.9970    9.1110   24.7490 N   0  0  0  0  0  0  0  0  0  0  0  0
   23.0220   12.1410   25.0180 C   0  0  0  0  0  0  0  0  0  0  0  0
   29.1260    9.8230   21.7090 N   0  0  0  0  0  0  0  0  0  0  0  0
   23.4880   10.6920   20.5300 C   0  0  0  0  0  0  0  0  0  0  0  0
   23.2110   10.7890   19.1730 C   0  0  0  0  0  0  0  0  0  0  0  0
   24.2350   10.8650   18.2430 C   0  0  0  0  0  0  0  0  0  0  0  0
   25.5500   10.8410   18.6560 C   0  0  0  0  0  0  0  0  0  0  0  0
   25.8710   10.7460   20.0070 C   0  0  0  0  0  0  0  0  0  0  0  0
   24.8260   10.6610   20.9430 C   0  0  0  0  0  0  0  0  0  0  0  0
   29.8540   10.9130   21.4510 C   0  0  0  0  0  0  0  0  0  0  0  0
   27.8830    9.7800   21.2080 C   0  0  0  0  0  0  0  0  0  0  0  0
   27.3000   10.8010   20.4650 C   0  0  0  0  0  0  0  0  0  0  0  0
   28.0930   11.9190   20.2200 C   0  0  0  0  0  0  0  0  0  0  0  0
   29.3850   11.9780   20.7130 C   0  0  0  0  0  0  0  0  0  0  0  0
    0.0000    0.0000    0.0000 H   0  0  0  0  0  0  0  0  0  0  0  0
    0.0000    0.0000    0.0000 H   0  0  0  0  0  0  0  0  0  0  0  0
    0.0000    0.0000    0.0000 H   0  0  0  0  0  0  0  0  0  0  0  0
    0.0000    0.0000    0.0000 H   0  0  0  0  0  0  0  0  0  0  0  0
    0.0000    0.0000    0.0000 H   0  0  0  0  0  0  0  0  0  0  0  0
    0.0000    0.0000    0.0000 H   0  0  0  0  0  0  0  0  0  0  0  0
    0.0000    0.0000    0.0000 H   0  0  0  0  0  0  0  0  0  0  0  0
    0.0000    0.0000    0.0000 H   0  0  0  0  0  0  0  0  0  0  0  0
    0.0000    0.0000    0.0000 H   0  0  0  0  0  0  0  0  0  0  0  0
    0.0000    0.0000    0.0000 H   0  0  0  0  0  0  0  0  0  0  0  0
    0.0000    0.0000    0.0000 H   0  0  0  0  0  0  0  0  0  0  0  0
    0.0000    0.0000    0.0000 H   0  0  0  0  0  0  0  0  0  0  0  0
    0.0000    0.0000    0.0000 H   0  0  0  0  0  0  0  0  0  0  0  0
   10.8689    5.1904   10.4903 C   0  0  0  0  0  0  0  0  0  0  0  0
   11.1769    5.1414    9.1435 C   0  0  0  0  0  0  0  0  0  0  0  0
   10.2159    4.6885    8.2669 C   0  0  0  0  0  0  0  0  0  0  0  0
    8.9858    4.2921    8.6796 C   0  0  0  0  0  0  0  0  0  0  0  0
    8.0097    3.8317    7.7854 O   0  0  0  0  0  0  0  0  0  0  0  0
    8.6569    4.3319   10.0127 C   0  0  0  0  0  0  0  0  0  0  0  0
    9.6174    4.7853   10.8944 C   0  0  0  0  0  0  0  0  0  0  0  0
   12.1599    5.4593    8.8227 H   0  0  0  0  0  0  0  0  0  0  0  0
   10.4681    4.6543    7.2138 H   0  0  0  0  0  0  0  0  0  0  0  0
    7.2070    4.4718    7.6797 H   0  0  0  0  0  0  0  0  0  0  0  0
    7.6658    4.0156   10.3713 H   0  0  0  0  0  0  0  0  0  0  0  0
    9.3722    4.8233   11.9583 H   0  0  0  0  0  0  0  0  0  0  0  0
  1  3  2  0
  1  4  1  0
  2  4  1  0
  1  5  1  0
  2  6  1  0
  5  6  1  0
  6  7  2  3
  5  8  1  0
  4 10  1  6
 10 11  2  0
 11 12  1  0
 12 13  2  0
 13 14  1  0
 10 15  1  0
 14 15  2  0
  9 16  2  0
  9 17  1  0
 14 18  1  0
 17 18  2  0
 18 19  1  0
 16 20  1  0
 19 20  2  0
  2 21  1  0
  7 22  1  0
  8 23  1  0
  8 24  1  0
  8 25  1  0
 11 26  1  0
 12 27  1  0
 13 28  1  0
 15 29  1  0
 16 30  1  0
 17 31  1  0
 19 32  1  0
 20 33  1  0
 34 35  2  0
 35 36  1  0
 36 37  2  0
 37 38  1  0
 37 39  1  0
 39 40  2  0
 40 34  1  0
 35 41  1  0
 36 42  1  0
 38 43  1  0
 39 44  1  0
 40 45  1  0
  4 34  1  0
M  END
>  <attachment_point>  (46) 
21

>  <score>  (46) 
<NA>

$$$$
4djw
     RDKit          3D

 46 49  0  0  0  0  0  0  0  0999 V2000
   22.4950   11.8750   22.5810 C   0  0  0  0  0  0  0  0  0  0  0  0
   22.5380    9.4930   22.4640 N   0  0  0  0  0  0  0  0  0  0  0  0
   22.3600   13.0630   22.3480 O   0  0  0  0  0  0  0  0  0  0  0  0
   22.3390   10.6680   21.5610 C   0  0  2  0  0  0  0  0  0  0  0  0
   22.7860   11.3350   23.8120 N   0  0  0  0  0  0  0  0  0  0  0  0
   22.7800    9.9140   23.7010 C   0  0  0  0  0  0  0  0  0  0  0  0
   22.9970    9.1110   24.7490 N   0  0  0  0  0  0  0  0  0  0  0  0
   23.0220   12.1410   25.0180 C   0  0  0  0  0  0  0  0  0  0  0  0
   29.1260    9.8230   21.7090 N   0  0  0  0  0  0  0  0  0  0  0  0
   23.4880   10.6920   20.5300 C   0  0  0  0  0  0  0  0  0  0  0  0
   23.2110   10.7890   19.1730 C   0  0  0  0  0  0  0  0  0  0  0  0
   24.2350   10.8650   18.2430 C   0  0  0  0  0  0  0  0  0  0  0  0
   25.5500   10.8410   18.6560 C   0  0  0  0  0  0  0  0  0  0  0  0
   25.8710   10.7460   20.0070 C   0  0  0  0  0  0  0  0  0  0  0  0
   24.8260   10.6610   20.9430 C   0  0  0  0  0  0  0  0  0  0  0  0
   29.8540   10.9130   21.4510 C   0  0  0  0  0  0  0  0  0  0  0  0
   27.8830    9.7800   21.2080 C   0  0  0  0  0  0  0  0  0  0  0  0
   27.3000   10.8010   20.4650 C   0  0  0  0  0  0  0  0  0  0  0  0
   28.0930   11.9190   20.2200 C   0  0  0  0  0  0  0  0  0  0  0  0
   29.3850   11.9780   20.7130 C   0  0  0  0  0  0  0  0  0  0  0  0
    0.0000    0.0000    0.0000 H   0  0  0  0  0  0  0  0  0  0  0  0
    0.0000    0.0000    0.0000 H   0  0  0  0  0  0  0  0  0  0  0  0
    0.0000    0.0000    0.0000 H   0  0  0  0  0  0  0  0  0  0  0  0
    0.0000    0.0000    0.0000 H   0  0  0  0  0  0  0  0  0  0  0  0
    0.0000    0.0000    0.0000 H   0  0  0  0  0  0  0  0  0  0  0  0
    0.0000    0.0000    0.0000 H   0  0  0  0  0  0  0  0  0  0  0  0
    0.0000    0.0000    0.0000 H   0  0  0  0  0  0  0  0  0  0  0  0
    0.0000    0.0000    0.0000 H   0  0  0  0  0  0  0  0  0  0  0  0
    0.0000    0.0000    0.0000 H   0  0  0  0  0  0  0  0  0  0  0  0
    0.0000    0.0000    0.0000 H   0  0  0  0  0  0  0  0  0  0  0  0
    0.0000    0.0000    0.0000 H   0  0  0  0  0  0  0  0  0  0  0  0
    0.0000    0.0000    0.0000 H   0  0  0  0  0  0  0  0  0  0  0  0
    0.0000    0.0000    0.0000 H   0  0  0  0  0  0  0  0  0  0  0  0
   10.8882    5.1997   10.5090 N   0  0  0  0  0  0  0  0  0  0  0  0
   10.4665    3.8658   10.5221 C   0  0  0  0  0  0  0  0  0  0  0  0
   10.9553    2.9425   11.4230 C   0  0  0  0  0  0  0  0  0  0  0  0
   10.5358    1.6413   11.4265 C   0  0  0  0  0  0  0  0  0  0  0  0
    9.5954    1.2101   10.5123 C   0  0  0  0  0  0  0  0  0  0  0  0
    9.1163    2.1348    9.6219 C   0  0  0  0  0  0  0  0  0  0  0  0
    9.5151    3.4558    9.5872 C   0  0  0  0  0  0  0  0  0  0  0  0
   10.5443    5.9182    9.8495 H   0  0  0  0  0  0  0  0  0  0  0  0
   11.6991    3.3218   12.1320 H   0  0  0  0  0  0  0  0  0  0  0  0
   10.9535    0.9582   12.1572 H   0  0  0  0  0  0  0  0  0  0  0  0
    9.2746    0.1686   10.5321 H   0  0  0  0  0  0  0  0  0  0  0  0
    8.3791    1.7930    8.9065 H   0  0  0  0  0  0  0  0  0  0  0  0
    9.0971    4.1197    8.8634 H   0  0  0  0  0  0  0  0  0  0  0  0
  1  3  2  0
  1  4  1  0
  2  4  1  0
  1  5  1  0
  2  6  1  0
  5  6  1  0
  6  7  2  3
  5  8  1  0
  4 10  1  0
 10 11  2  0
 11 12  1  0
 12 13  2  0
 13 14  1  0
 10 15  1  0
 14 15  2  0
  9 16  2  0
  9 17  1  0
 14 18  1  0
 17 18  2  0
 18 19  1  0
 16 20  1  0
 19 20  2  0
  2 21  1  0
  7 22  1  0
  8 23  1  0
  8 24  1  0
  8 25  1  0
 11 26  1  0
 12 27  1  0
 13 28  1  0
 15 29  1  0
 16 30  1  0
 17 31  1  0
 19 32  1  0
 20 33  1  0
 34 35  1  0
 35 36  2  0
 36 37  1  0
 37 38  2  0
 38 39  1  0
 39 40  2  0
 40 35  1  0
 34 41  1  0
 36 42  1  0
 37 43  1  0
 38 44  1  0
 39 45  1  0
 40 46  1  0
  4 34  1  6
M  END
>  <attachment_point>  (47) 
21

>  <score>  (47) 
<NA>

$$$$
4djw
     RDKit          3D

 40 42  0  0  0  0  0  0  0  0999 V2000
   22.4950   11.8750   22.5810 C   0  0  0  0  0  0  0  0  0  0  0  0
   22.5380    9.4930   22.4640 N   0  0  0  0  0  0  0  0  0  0  0  0
   22.3600   13.0630   22.3480 O   0  0  0  0  0  0  0  0  0  0  0  0
   22.3390   10.6680   21.5610 C   0  0  2  0  0  0  0  0  0  0  0  0
   22.7860   11.3350   23.8120 N   0  0  0  0  0  0  0  0  0  0  0  0
   22.7800    9.9140   23.7010 C   0  0  0  0  0  0  0  0  0  0  0  0
   22.9970    9.1110   24.7490 N   0  0  0  0  0  0  0  0  0  0  0  0
   23.0220   12.1410   25.0180 C   0  0  0  0  0  0  0  0  0  0  0  0
   29.1260    9.8230   21.7090 N   0  0  0  0  0  0  0  0  0  0  0  0
   23.4880   10.6920   20.5300 C   0  0  0  0  0  0  0  0  0  0  0  0
   23.2110   10.7890   19.1730 C   0  0  0  0  0  0  0  0  0  0  0  0
   24.2350   10.8650   18.2430 C   0  0  0  0  0  0  0  0  0  0  0  0
   25.5500   10.8410   18.6560 C   0  0  0  0  0  0  0  0  0  0  0  0
   25.8710   10.7460   20.0070 C   0  0  0  0  0  0  0  0  0  0  0  0
   24.8260   10.6610   20.9430 C   0  0  0  0  0  0  0  0  0  0  0  0
   29.8540   10.9130   21.4510 C   0  0  0  0  0  0  0  0  0  0  0  0
   27.8830    9.7800   21.2080 C   0  0  0  0  0  0  0  0  0  0  0  0
   27.3000   10.8010   20.4650 C   0  0  0  0  0  0  0  0  0  0  0  0
   28.0930   11.9190   20.2200 C   0  0  0  0  0  0  0  0  0  0  0  0
   29.3850   11.9780   20.7130 C   0  0  0  0  0  0  0  0  0  0  0  0
    0.0000    0.0000    0.0000 H   0  0  0  0  0  0  0  0  0  0  0  0
    0.0000    0.0000    0.0000 H   0  0  0  0  0  0  0  0  0  0  0  0
    0.0000    0.0000    0.0000 H   0  0  0  0  0  0  0  0  0  0  0  0
    0.0000    0.0000    0.0000 H   0  0  0  0  0  0  0  0  0  0  0  0
    0.0000    0.0000    0.0000 H   0  0  0  0  0  0  0  0  0  0  0  0
    0.0000    0.0000    0.0000 H   0  0  0  0  0  0  0  0  0  0  0  0
    0.0000    0.0000    0.0000 H   0  0  0  0  0  0  0  0  0  0  0  0
    0.0000    0.0000    0.0000 H   0  0  0  0  0  0  0  0  0  0  0  0
    0.0000    0.0000    0.0000 H   0  0  0  0  0  0  0  0  0  0  0  0
    0.0000    0.0000    0.0000 H   0  0  0  0  0  0  0  0  0  0  0  0
    0.0000    0.0000    0.0000 H   0  0  0  0  0  0  0  0  0  0  0  0
    0.0000    0.0000    0.0000 H   0  0  0  0  0  0  0  0  0  0  0  0
    0.0000    0.0000    0.0000 H   0  0  0  0  0  0  0  0  0  0  0  0
   10.8650    5.1886   10.4866 S   0  0  0  0  0  6  0  0  0  0  0  0
   11.6293    4.3099    9.1706 C   0  0  0  0  0  0  0  0  0  0  0  0
   10.1966    6.4428    9.9549 O   0  0  0  0  0  0  0  0  0  0  0  0
    9.7832    4.4028   11.1678 O   0  0  0  0  0  0  0  0  0  0  0  0
   11.5276    4.8950    8.2175 H   0  0  0  0  0  0  0  0  0  0  0  0
   11.1358    3.3302    8.9570 H   0  0  0  0  0  0  0  0  0  0  0  0
   12.7346    4.1875    9.3071 H   0  0  0  0  0  0  0  0  0  0  0  0
  1  3  2  0
  1  4  1  0
  2  4  1  0
  1  5  1  0
  2  6  1  0
  5  6  1  0
  6  7  2  3
  5  8  1  0
  4 10  1  6
 10 11  2  0
 11 12  1  0
 12 13  2  0
 13 14  1  0
 10 15  1  0
 14 15  2  0
  9 16  2  0
  9 17  1  0
 14 18  1  0
 17 18  2  0
 18 19  1  0
 16 20  1  0
 19 20  2  0
  2 21  1  0
  7 22  1  0
  8 23  1  0
  8 24  1  0
  8 25  1  0
 11 26  1  0
 12 27  1  0
 13 28  1  0
 15 29  1  0
 16 30  1  0
 17 31  1  0
 19 32  1  0
 20 33  1  0
 34 35  1  0
 34 36  2  0
 34 37  2  0
 35 38  1  0
 35 39  1  0
 35 40  1  0
  4 34  1  0
M  END
>  <attachment_point>  (48) 
21

>  <score>  (48) 
<NA>

$$$$
4djw
     RDKit          3D

 48 51  0  0  0  0  0  0  0  0999 V2000
   22.4950   11.8750   22.5810 C   0  0  0  0  0  0  0  0  0  0  0  0
   22.5380    9.4930   22.4640 N   0  0  0  0  0  0  0  0  0  0  0  0
   22.3600   13.0630   22.3480 O   0  0  0  0  0  0  0  0  0  0  0  0
   22.3390   10.6680   21.5610 C   0  0  2  0  0  0  0  0  0  0  0  0
   22.7860   11.3350   23.8120 N   0  0  0  0  0  0  0  0  0  0  0  0
   22.7800    9.9140   23.7010 C   0  0  0  0  0  0  0  0  0  0  0  0
   22.9970    9.1110   24.7490 N   0  0  0  0  0  0  0  0  0  0  0  0
   23.0220   12.1410   25.0180 C   0  0  0  0  0  0  0  0  0  0  0  0
   29.1260    9.8230   21.7090 N   0  0  0  0  0  0  0  0  0  0  0  0
   23.4880   10.6920   20.5300 C   0  0  0  0  0  0  0  0  0  0  0  0
   23.2110   10.7890   19.1730 C   0  0  0  0  0  0  0  0  0  0  0  0
   24.2350   10.8650   18.2430 C   0  0  0  0  0  0  0  0  0  0  0  0
   25.5500   10.8410   18.6560 C   0  0  0  0  0  0  0  0  0  0  0  0
   25.8710   10.7460   20.0070 C   0  0  0  0  0  0  0  0  0  0  0  0
   24.8260   10.6610   20.9430 C   0  0  0  0  0  0  0  0  0  0  0  0
   29.8540   10.9130   21.4510 C   0  0  0  0  0  0  0  0  0  0  0  0
   27.8830    9.7800   21.2080 C   0  0  0  0  0  0  0  0  0  0  0  0
   27.3000   10.8010   20.4650 C   0  0  0  0  0  0  0  0  0  0  0  0
   28.0930   11.9190   20.2200 C   0  0  0  0  0  0  0  0  0  0  0  0
   29.3850   11.9780   20.7130 C   0  0  0  0  0  0  0  0  0  0  0  0
    0.0000    0.0000    0.0000 H   0  0  0  0  0  0  0  0  0  0  0  0
    0.0000    0.0000    0.0000 H   0  0  0  0  0  0  0  0  0  0  0  0
    0.0000    0.0000    0.0000 H   0  0  0  0  0  0  0  0  0  0  0  0
    0.0000    0.0000    0.0000 H   0  0  0  0  0  0  0  0  0  0  0  0
    0.0000    0.0000    0.0000 H   0  0  0  0  0  0  0  0  0  0  0  0
    0.0000    0.0000    0.0000 H   0  0  0  0  0  0  0  0  0  0  0  0
    0.0000    0.0000    0.0000 H   0  0  0  0  0  0  0  0  0  0  0  0
    0.0000    0.0000    0.0000 H   0  0  0  0  0  0  0  0  0  0  0  0
    0.0000    0.0000    0.0000 H   0  0  0  0  0  0  0  0  0  0  0  0
    0.0000    0.0000    0.0000 H   0  0  0  0  0  0  0  0  0  0  0  0
    0.0000    0.0000    0.0000 H   0  0  0  0  0  0  0  0  0  0  0  0
    0.0000    0.0000    0.0000 H   0  0  0  0  0  0  0  0  0  0  0  0
    0.0000    0.0000    0.0000 H   0  0  0  0  0  0  0  0  0  0  0  0
   10.9158    5.2129   10.5357 N   0  0  0  0  0  0  0  0  0  0  0  0
   11.3694    4.2187    9.6487 C   0  0  0  0  0  0  0  0  0  0  0  0
   10.6987    2.8763    9.8324 C   0  0  0  0  0  0  0  0  0  0  0  0
    9.2770    3.1303    9.6041 N   0  0  0  0  0  0  0  0  0  0  0  0
    8.7248    4.0565   10.5508 C   0  0  0  0  0  0  0  0  0  0  0  0
    9.5499    5.2207   10.8849 C   0  0  0  0  0  0  0  0  0  0  0  0
   11.2301    4.4904    8.5706 H   0  0  0  0  0  0  0  0  0  0  0  0
   12.4650    4.0859    9.7774 H   0  0  0  0  0  0  0  0  0  0  0  0
   10.9002    2.4358   10.8141 H   0  0  0  0  0  0  0  0  0  0  0  0
   11.0427    2.2105    9.0306 H   0  0  0  0  0  0  0  0  0  0  0  0
    9.2296    3.5893    8.6558 H   0  0  0  0  0  0  0  0  0  0  0  0
    8.3978    3.4913   11.4737 H   0  0  0  0  0  0  0  0  0  0  0  0
    7.7422    4.3910   10.0991 H   0  0  0  0  0  0  0  0  0  0  0  0
    9.4795    5.3986   12.0004 H   0  0  0  0  0  0  0  0  0  0  0  0
    9.0944    6.1605   10.4497 H   0  0  0  0  0  0  0  0  0  0  0  0
  1  3  2  0
  1  4  1  0
  2  4  1  0
  1  5  1  0
  2  6  1  0
  5  6  1  0
  6  7  2  3
  5  8  1  0
  4 10  1  0
 10 11  2  0
 11 12  1  0
 12 13  2  0
 13 14  1  0
 10 15  1  0
 14 15  2  0
  9 16  2  0
  9 17  1  0
 14 18  1  0
 17 18  2  0
 18 19  1  0
 16 20  1  0
 19 20  2  0
  2 21  1  0
  7 22  1  0
  8 23  1  0
  8 24  1  0
  8 25  1  0
 11 26  1  0
 12 27  1  0
 13 28  1  0
 15 29  1  0
 16 30  1  0
 17 31  1  0
 19 32  1  0
 20 33  1  0
 34 35  1  0
 35 36  1  0
 36 37  1  0
 37 38  1  0
 38 39  1  0
 39 34  1  0
 35 40  1  0
 35 41  1  0
 36 42  1  0
 36 43  1  0
 37 44  1  0
 38 45  1  0
 38 46  1  0
 39 47  1  0
 39 48  1  0
  4 34  1  6
M  END
>  <attachment_point>  (49) 
21

>  <score>  (49) 
<NA>

$$$$
4djw
     RDKit          3D

 46 49  0  0  0  0  0  0  0  0999 V2000
   22.4950   11.8750   22.5810 C   0  0  0  0  0  0  0  0  0  0  0  0
   22.5380    9.4930   22.4640 N   0  0  0  0  0  0  0  0  0  0  0  0
   22.3600   13.0630   22.3480 O   0  0  0  0  0  0  0  0  0  0  0  0
   22.3390   10.6680   21.5610 C   0  0  2  0  0  0  0  0  0  0  0  0
   22.7860   11.3350   23.8120 N   0  0  0  0  0  0  0  0  0  0  0  0
   22.7800    9.9140   23.7010 C   0  0  0  0  0  0  0  0  0  0  0  0
   22.9970    9.1110   24.7490 N   0  0  0  0  0  0  0  0  0  0  0  0
   23.0220   12.1410   25.0180 C   0  0  0  0  0  0  0  0  0  0  0  0
   29.1260    9.8230   21.7090 N   0  0  0  0  0  0  0  0  0  0  0  0
   23.4880   10.6920   20.5300 C   0  0  0  0  0  0  0  0  0  0  0  0
   23.2110   10.7890   19.1730 C   0  0  0  0  0  0  0  0  0  0  0  0
   24.2350   10.8650   18.2430 C   0  0  0  0  0  0  0  0  0  0  0  0
   25.5500   10.8410   18.6560 C   0  0  0  0  0  0  0  0  0  0  0  0
   25.8710   10.7460   20.0070 C   0  0  0  0  0  0  0  0  0  0  0  0
   24.8260   10.6610   20.9430 C   0  0  0  0  0  0  0  0  0  0  0  0
   29.8540   10.9130   21.4510 C   0  0  0  0  0  0  0  0  0  0  0  0
   27.8830    9.7800   21.2080 C   0  0  0  0  0  0  0  0  0  0  0  0
   27.3000   10.8010   20.4650 C   0  0  0  0  0  0  0  0  0  0  0  0
   28.0930   11.9190   20.2200 C   0  0  0  0  0  0  0  0  0  0  0  0
   29.3850   11.9780   20.7130 C   0  0  0  0  0  0  0  0  0  0  0  0
    0.0000    0.0000    0.0000 H   0  0  0  0  0  0  0  0  0  0  0  0
    0.0000    0.0000    0.0000 H   0  0  0  0  0  0  0  0  0  0  0  0
    0.0000    0.0000    0.0000 H   0  0  0  0  0  0  0  0  0  0  0  0
    0.0000    0.0000    0.0000 H   0  0  0  0  0  0  0  0  0  0  0  0
    0.0000    0.0000    0.0000 H   0  0  0  0  0  0  0  0  0  0  0  0
    0.0000    0.0000    0.0000 H   0  0  0  0  0  0  0  0  0  0  0  0
    0.0000    0.0000    0.0000 H   0  0  0  0  0  0  0  0  0  0  0  0
    0.0000    0.0000    0.0000 H   0  0  0  0  0  0  0  0  0  0  0  0
    0.0000    0.0000    0.0000 H   0  0  0  0  0  0  0  0  0  0  0  0
    0.0000    0.0000    0.0000 H   0  0  0  0  0  0  0  0  0  0  0  0
    0.0000    0.0000    0.0000 H   0  0  0  0  0  0  0  0  0  0  0  0
    0.0000    0.0000    0.0000 H   0  0  0  0  0  0  0  0  0  0  0  0
    0.0000    0.0000    0.0000 H   0  0  0  0  0  0  0  0  0  0  0  0
   10.8200    5.1671   10.4431 N   0  0  0  0  0  0  0  0  0  0  0  0
   10.0709    4.4373   11.4752 C   0  0  0  0  0  0  0  0  0  0  0  0
   11.0764    3.5215   12.0986 C   0  0  0  0  0  0  0  0  0  0  0  0
   12.0296    3.2100   10.9791 C   0  0  0  0  0  0  0  0  0  0  0  0
   11.7364    4.1698    9.8722 C   0  0  0  0  0  0  0  0  0  0  0  0
    9.2973    3.8762   10.9581 H   0  0  0  0  0  0  0  0  0  0  0  0
    9.6411    5.1674   12.1795 H   0  0  0  0  0  0  0  0  0  0  0  0
   11.6134    4.0854   12.9030 H   0  0  0  0  0  0  0  0  0  0  0  0
   10.5836    2.6152   12.5194 H   0  0  0  0  0  0  0  0  0  0  0  0
   11.8621    2.1676   10.6038 H   0  0  0  0  0  0  0  0  0  0  0  0
   13.0674    3.2965   11.3198 H   0  0  0  0  0  0  0  0  0  0  0  0
   12.6214    4.7201    9.5001 H   0  0  0  0  0  0  0  0  0  0  0  0
   11.2212    3.7345    9.0198 H   0  0  0  0  0  0  0  0  0  0  0  0
  1  3  2  0
  1  4  1  0
  2  4  1  0
  1  5  1  0
  2  6  1  0
  5  6  1  0
  6  7  2  3
  5  8  1  0
  4 10  1  0
 10 11  2  0
 11 12  1  0
 12 13  2  0
 13 14  1  0
 10 15  1  0
 14 15  2  0
  9 16  2  0
  9 17  1  0
 14 18  1  0
 17 18  2  0
 18 19  1  0
 16 20  1  0
 19 20  2  0
  2 21  1  0
  7 22  1  0
  8 23  1  0
  8 24  1  0
  8 25  1  0
 11 26  1  0
 12 27  1  0
 13 28  1  0
 15 29  1  0
 16 30  1  0
 17 31  1  0
 19 32  1  0
 20 33  1  0
 34 35  1  0
 35 36  1  0
 36 37  1  0
 37 38  1  0
 38 34  1  0
 35 39  1  0
 35 40  1  0
 36 41  1  0
 36 42  1  0
 37 43  1  0
 37 44  1  0
 38 45  1  0
 38 46  1  0
  4 34  1  6
M  END
>  <attachment_point>  (50) 
21

>  <score>  (50) 
<NA>

$$$$
4djw
     RDKit          3D

 48 51  0  0  0  0  0  0  0  0999 V2000
   22.4950   11.8750   22.5810 C   0  0  0  0  0  0  0  0  0  0  0  0
   22.5380    9.4930   22.4640 N   0  0  0  0  0  0  0  0  0  0  0  0
   22.3600   13.0630   22.3480 O   0  0  0  0  0  0  0  0  0  0  0  0
   22.3390   10.6680   21.5610 C   0  0  2  0  0  0  0  0  0  0  0  0
   22.7860   11.3350   23.8120 N   0  0  0  0  0  0  0  0  0  0  0  0
   22.7800    9.9140   23.7010 C   0  0  0  0  0  0  0  0  0  0  0  0
   22.9970    9.1110   24.7490 N   0  0  0  0  0  0  0  0  0  0  0  0
   23.0220   12.1410   25.0180 C   0  0  0  0  0  0  0  0  0  0  0  0
   29.1260    9.8230   21.7090 N   0  0  0  0  0  0  0  0  0  0  0  0
   23.4880   10.6920   20.5300 C   0  0  0  0  0  0  0  0  0  0  0  0
   23.2110   10.7890   19.1730 C   0  0  0  0  0  0  0  0  0  0  0  0
   24.2350   10.8650   18.2430 C   0  0  0  0  0  0  0  0  0  0  0  0
   25.5500   10.8410   18.6560 C   0  0  0  0  0  0  0  0  0  0  0  0
   25.8710   10.7460   20.0070 C   0  0  0  0  0  0  0  0  0  0  0  0
   24.8260   10.6610   20.9430 C   0  0  0  0  0  0  0  0  0  0  0  0
   29.8540   10.9130   21.4510 C   0  0  0  0  0  0  0  0  0  0  0  0
   27.8830    9.7800   21.2080 C   0  0  0  0  0  0  0  0  0  0  0  0
   27.3000   10.8010   20.4650 C   0  0  0  0  0  0  0  0  0  0  0  0
   28.0930   11.9190   20.2200 C   0  0  0  0  0  0  0  0  0  0  0  0
   29.3850   11.9780   20.7130 C   0  0  0  0  0  0  0  0  0  0  0  0
    0.0000    0.0000    0.0000 H   0  0  0  0  0  0  0  0  0  0  0  0
    0.0000    0.0000    0.0000 H   0  0  0  0  0  0  0  0  0  0  0  0
    0.0000    0.0000    0.0000 H   0  0  0  0  0  0  0  0  0  0  0  0
    0.0000    0.0000    0.0000 H   0  0  0  0  0  0  0  0  0  0  0  0
    0.0000    0.0000    0.0000 H   0  0  0  0  0  0  0  0  0  0  0  0
    0.0000    0.0000    0.0000 H   0  0  0  0  0  0  0  0  0  0  0  0
    0.0000    0.0000    0.0000 H   0  0  0  0  0  0  0  0  0  0  0  0
    0.0000    0.0000    0.0000 H   0  0  0  0  0  0  0  0  0  0  0  0
    0.0000    0.0000    0.0000 H   0  0  0  0  0  0  0  0  0  0  0  0
    0.0000    0.0000    0.0000 H   0  0  0  0  0  0  0  0  0  0  0  0
    0.0000    0.0000    0.0000 H   0  0  0  0  0  0  0  0  0  0  0  0
    0.0000    0.0000    0.0000 H   0  0  0  0  0  0  0  0  0  0  0  0
    0.0000    0.0000    0.0000 H   0  0  0  0  0  0  0  0  0  0  0  0
   10.8532    5.1829   10.4752 C   0  0  0  0  0  0  0  0  0  0  0  0
    9.8654    4.3420   10.8849 C   0  0  0  0  0  0  0  0  0  0  0  0
    8.9191    3.8933    9.9599 C   0  0  0  0  0  0  0  0  0  0  0  0
    9.0233    4.3281    8.6403 C   0  0  0  0  0  0  0  0  0  0  0  0
   10.0308    5.1816    8.2381 C   0  0  0  0  0  0  0  0  0  0  0  0
   10.0978    5.5846    6.9334 O   0  0  0  0  0  0  0  0  0  0  0  0
   11.1255    6.4621    6.4975 C   0  0  0  0  0  0  0  0  0  0  0  0
   10.9751    5.6257    9.1742 C   0  0  0  0  0  0  0  0  0  0  0  0
    9.8376    4.0407   11.9214 H   0  0  0  0  0  0  0  0  0  0  0  0
    8.1419    3.2307   10.2862 H   0  0  0  0  0  0  0  0  0  0  0  0
    8.3139    4.0037    7.9027 H   0  0  0  0  0  0  0  0  0  0  0  0
   12.1226    6.1259    6.8863 H   0  0  0  0  0  0  0  0  0  0  0  0
   11.1603    6.5649    5.4099 H   0  0  0  0  0  0  0  0  0  0  0  0
   10.9645    7.4765    6.9250 H   0  0  0  0  0  0  0  0  0  0  0  0
   11.7668    6.2857    8.8970 H   0  0  0  0  0  0  0  0  0  0  0  0
  1  3  2  0
  1  4  1  0
  2  4  1  0
  1  5  1  0
  2  6  1  0
  5  6  1  0
  6  7  2  3
  5  8  1  0
  4 10  1  6
 10 11  2  0
 11 12  1  0
 12 13  2  0
 13 14  1  0
 10 15  1  0
 14 15  2  0
  9 16  2  0
  9 17  1  0
 14 18  1  0
 17 18  2  0
 18 19  1  0
 16 20  1  0
 19 20  2  0
  2 21  1  0
  7 22  1  0
  8 23  1  0
  8 24  1  0
  8 25  1  0
 11 26  1  0
 12 27  1  0
 13 28  1  0
 15 29  1  0
 16 30  1  0
 17 31  1  0
 19 32  1  0
 20 33  1  0
 34 35  2  0
 35 36  1  0
 36 37  2  0
 37 38  1  0
 38 39  1  0
 39 40  1  0
 38 41  2  0
 41 34  1  0
 35 42  1  0
 36 43  1  0
 37 44  1  0
 40 45  1  0
 40 46  1  0
 40 47  1  0
 41 48  1  0
  4 34  1  0
M  END
>  <attachment_point>  (51) 
21

>  <score>  (51) 
<NA>

$$$$
4djw
     RDKit          3D

 45 48  0  0  0  0  0  0  0  0999 V2000
   22.4950   11.8750   22.5810 C   0  0  0  0  0  0  0  0  0  0  0  0
   22.5380    9.4930   22.4640 N   0  0  0  0  0  0  0  0  0  0  0  0
   22.3600   13.0630   22.3480 O   0  0  0  0  0  0  0  0  0  0  0  0
   22.3390   10.6680   21.5610 C   0  0  2  0  0  0  0  0  0  0  0  0
   22.7860   11.3350   23.8120 N   0  0  0  0  0  0  0  0  0  0  0  0
   22.7800    9.9140   23.7010 C   0  0  0  0  0  0  0  0  0  0  0  0
   22.9970    9.1110   24.7490 N   0  0  0  0  0  0  0  0  0  0  0  0
   23.0220   12.1410   25.0180 C   0  0  0  0  0  0  0  0  0  0  0  0
   29.1260    9.8230   21.7090 N   0  0  0  0  0  0  0  0  0  0  0  0
   23.4880   10.6920   20.5300 C   0  0  0  0  0  0  0  0  0  0  0  0
   23.2110   10.7890   19.1730 C   0  0  0  0  0  0  0  0  0  0  0  0
   24.2350   10.8650   18.2430 C   0  0  0  0  0  0  0  0  0  0  0  0
   25.5500   10.8410   18.6560 C   0  0  0  0  0  0  0  0  0  0  0  0
   25.8710   10.7460   20.0070 C   0  0  0  0  0  0  0  0  0  0  0  0
   24.8260   10.6610   20.9430 C   0  0  0  0  0  0  0  0  0  0  0  0
   29.8540   10.9130   21.4510 C   0  0  0  0  0  0  0  0  0  0  0  0
   27.8830    9.7800   21.2080 C   0  0  0  0  0  0  0  0  0  0  0  0
   27.3000   10.8010   20.4650 C   0  0  0  0  0  0  0  0  0  0  0  0
   28.0930   11.9190   20.2200 C   0  0  0  0  0  0  0  0  0  0  0  0
   29.3850   11.9780   20.7130 C   0  0  0  0  0  0  0  0  0  0  0  0
    0.0000    0.0000    0.0000 H   0  0  0  0  0  0  0  0  0  0  0  0
    0.0000    0.0000    0.0000 H   0  0  0  0  0  0  0  0  0  0  0  0
    0.0000    0.0000    0.0000 H   0  0  0  0  0  0  0  0  0  0  0  0
    0.0000    0.0000    0.0000 H   0  0  0  0  0  0  0  0  0  0  0  0
    0.0000    0.0000    0.0000 H   0  0  0  0  0  0  0  0  0  0  0  0
    0.0000    0.0000    0.0000 H   0  0  0  0  0  0  0  0  0  0  0  0
    0.0000    0.0000    0.0000 H   0  0  0  0  0  0  0  0  0  0  0  0
    0.0000    0.0000    0.0000 H   0  0  0  0  0  0  0  0  0  0  0  0
    0.0000    0.0000    0.0000 H   0  0  0  0  0  0  0  0  0  0  0  0
    0.0000    0.0000    0.0000 H   0  0  0  0  0  0  0  0  0  0  0  0
    0.0000    0.0000    0.0000 H   0  0  0  0  0  0  0  0  0  0  0  0
    0.0000    0.0000    0.0000 H   0  0  0  0  0  0  0  0  0  0  0  0
    0.0000    0.0000    0.0000 H   0  0  0  0  0  0  0  0  0  0  0  0
   10.8475    5.1802   10.4697 C   0  0  0  0  0  0  0  0  0  0  0  0
   11.2727    4.4626    9.3966 C   0  0  0  0  0  0  0  0  0  0  0  0
   10.3626    3.9821    8.4441 C   0  0  0  0  0  0  0  0  0  0  0  0
    9.0165    4.2859    8.6701 C   0  0  0  0  0  0  0  0  0  0  0  0
    8.5913    5.0107    9.7548 C   0  0  0  0  0  0  0  0  0  0  0  0
    7.2732    5.3231    9.9998 O   0  0  0  0  0  0  0  0  0  0  0  0
    9.5356    5.4711   10.6814 C   0  0  0  0  0  0  0  0  0  0  0  0
   12.3133    4.2170    9.2044 H   0  0  0  0  0  0  0  0  0  0  0  0
   10.6965    3.4111    7.5892 H   0  0  0  0  0  0  0  0  0  0  0  0
    8.2938    3.9238    7.9448 H   0  0  0  0  0  0  0  0  0  0  0  0
    6.7550    4.6728   10.6081 H   0  0  0  0  0  0  0  0  0  0  0  0
    9.2038    6.0451   11.5415 H   0  0  0  0  0  0  0  0  0  0  0  0
  1  3  2  0
  1  4  1  0
  2  4  1  0
  1  5  1  0
  2  6  1  0
  5  6  1  0
  6  7  2  3
  5  8  1  0
  4 10  1  6
 10 11  2  0
 11 12  1  0
 12 13  2  0
 13 14  1  0
 10 15  1  0
 14 15  2  0
  9 16  2  0
  9 17  1  0
 14 18  1  0
 17 18  2  0
 18 19  1  0
 16 20  1  0
 19 20  2  0
  2 21  1  0
  7 22  1  0
  8 23  1  0
  8 24  1  0
  8 25  1  0
 11 26  1  0
 12 27  1  0
 13 28  1  0
 15 29  1  0
 16 30  1  0
 17 31  1  0
 19 32  1  0
 20 33  1  0
 34 35  2  0
 35 36  1  0
 36 37  2  0
 37 38  1  0
 38 39  1  0
 38 40  2  0
 40 34  1  0
 35 41  1  0
 36 42  1  0
 37 43  1  0
 39 44  1  0
 40 45  1  0
  4 34  1  0
M  END
>  <attachment_point>  (52) 
21

>  <score>  (52) 
<NA>

$$$$
4djw
     RDKit          3D

 50 53  0  0  0  0  0  0  0  0999 V2000
   22.4950   11.8750   22.5810 C   0  0  0  0  0  0  0  0  0  0  0  0
   22.5380    9.4930   22.4640 N   0  0  0  0  0  0  0  0  0  0  0  0
   22.3600   13.0630   22.3480 O   0  0  0  0  0  0  0  0  0  0  0  0
   22.3390   10.6680   21.5610 C   0  0  2  0  0  0  0  0  0  0  0  0
   22.7860   11.3350   23.8120 N   0  0  0  0  0  0  0  0  0  0  0  0
   22.7800    9.9140   23.7010 C   0  0  0  0  0  0  0  0  0  0  0  0
   22.9970    9.1110   24.7490 N   0  0  0  0  0  0  0  0  0  0  0  0
   23.0220   12.1410   25.0180 C   0  0  0  0  0  0  0  0  0  0  0  0
   29.1260    9.8230   21.7090 N   0  0  0  0  0  0  0  0  0  0  0  0
   23.4880   10.6920   20.5300 C   0  0  0  0  0  0  0  0  0  0  0  0
   23.2110   10.7890   19.1730 C   0  0  0  0  0  0  0  0  0  0  0  0
   24.2350   10.8650   18.2430 C   0  0  0  0  0  0  0  0  0  0  0  0
   25.5500   10.8410   18.6560 C   0  0  0  0  0  0  0  0  0  0  0  0
   25.8710   10.7460   20.0070 C   0  0  0  0  0  0  0  0  0  0  0  0
   24.8260   10.6610   20.9430 C   0  0  0  0  0  0  0  0  0  0  0  0
   29.8540   10.9130   21.4510 C   0  0  0  0  0  0  0  0  0  0  0  0
   27.8830    9.7800   21.2080 C   0  0  0  0  0  0  0  0  0  0  0  0
   27.3000   10.8010   20.4650 C   0  0  0  0  0  0  0  0  0  0  0  0
   28.0930   11.9190   20.2200 C   0  0  0  0  0  0  0  0  0  0  0  0
   29.3850   11.9780   20.7130 C   0  0  0  0  0  0  0  0  0  0  0  0
    0.0000    0.0000    0.0000 H   0  0  0  0  0  0  0  0  0  0  0  0
    0.0000    0.0000    0.0000 H   0  0  0  0  0  0  0  0  0  0  0  0
    0.0000    0.0000    0.0000 H   0  0  0  0  0  0  0  0  0  0  0  0
    0.0000    0.0000    0.0000 H   0  0  0  0  0  0  0  0  0  0  0  0
    0.0000    0.0000    0.0000 H   0  0  0  0  0  0  0  0  0  0  0  0
    0.0000    0.0000    0.0000 H   0  0  0  0  0  0  0  0  0  0  0  0
    0.0000    0.0000    0.0000 H   0  0  0  0  0  0  0  0  0  0  0  0
    0.0000    0.0000    0.0000 H   0  0  0  0  0  0  0  0  0  0  0  0
    0.0000    0.0000    0.0000 H   0  0  0  0  0  0  0  0  0  0  0  0
    0.0000    0.0000    0.0000 H   0  0  0  0  0  0  0  0  0  0  0  0
    0.0000    0.0000    0.0000 H   0  0  0  0  0  0  0  0  0  0  0  0
    0.0000    0.0000    0.0000 H   0  0  0  0  0  0  0  0  0  0  0  0
    0.0000    0.0000    0.0000 H   0  0  0  0  0  0  0  0  0  0  0  0
   10.8750    5.1934   10.4963 C   0  0  0  0  0  0  0  0  0  0  0  0
    9.6400    4.8764   11.0960 N   0  0  0  0  0  0  0  0  0  0  0  0
    8.9553    5.8957   11.7775 C   0  0  0  0  0  0  0  0  0  0  0  0
    7.7412    6.3011   10.9334 C   0  0  0  0  0  0  0  0  0  0  0  0
    6.9151    5.1898   10.9294 O   0  0  0  0  0  0  0  0  0  0  0  0
    7.4319    4.0804   10.3464 C   0  0  0  0  0  0  0  0  0  0  0  0
    8.8824    3.8373   10.5422 C   0  0  0  0  0  0  0  0  0  0  0  0
   10.8347    5.9502    9.6905 H   0  0  0  0  0  0  0  0  0  0  0  0
   11.3042    4.2771   10.0406 H   0  0  0  0  0  0  0  0  0  0  0  0
    8.5176    5.4527   12.7202 H   0  0  0  0  0  0  0  0  0  0  0  0
    9.5838    6.7347   12.0452 H   0  0  0  0  0  0  0  0  0  0  0  0
    7.2315    7.1480   11.3888 H   0  0  0  0  0  0  0  0  0  0  0  0
    8.0454    6.4853    9.8846 H   0  0  0  0  0  0  0  0  0  0  0  0
    6.8663    3.1889   10.7494 H   0  0  0  0  0  0  0  0  0  0  0  0
    7.1412    4.0999    9.2562 H   0  0  0  0  0  0  0  0  0  0  0  0
    9.0658    2.9003   11.1474 H   0  0  0  0  0  0  0  0  0  0  0  0
    9.3167    3.5781    9.5310 H   0  0  0  0  0  0  0  0  0  0  0  0
  1  3  2  0
  1  4  1  0
  2  4  1  0
  1  5  1  0
  2  6  1  0
  5  6  1  0
  6  7  2  3
  5  8  1  0
  4 10  1  0
 10 11  2  0
 11 12  1  0
 12 13  2  0
 13 14  1  0
 10 15  1  0
 14 15  2  0
  9 16  2  0
  9 17  1  0
 14 18  1  0
 17 18  2  0
 18 19  1  0
 16 20  1  0
 19 20  2  0
  2 21  1  0
  7 22  1  0
  8 23  1  0
  8 24  1  0
  8 25  1  0
 11 26  1  0
 12 27  1  0
 13 28  1  0
 15 29  1  0
 16 30  1  0
 17 31  1  0
 19 32  1  0
 20 33  1  0
 34 35  1  0
 35 36  1  0
 36 37  1  0
 37 38  1  0
 38 39  1  0
 39 40  1  0
 40 35  1  0
 34 41  1  0
 34 42  1  0
 36 43  1  0
 36 44  1  0
 37 45  1  0
 37 46  1  0
 39 47  1  0
 39 48  1  0
 40 49  1  0
 40 50  1  0
  4 34  1  6
M  END
>  <attachment_point>  (53) 
21

>  <score>  (53) 
<NA>

$$$$
4djw
     RDKit          3D

 43 45  0  0  0  0  0  0  0  0999 V2000
   22.4950   11.8750   22.5810 C   0  0  0  0  0  0  0  0  0  0  0  0
   22.5380    9.4930   22.4640 N   0  0  0  0  0  0  0  0  0  0  0  0
   22.3600   13.0630   22.3480 O   0  0  0  0  0  0  0  0  0  0  0  0
   22.3390   10.6680   21.5610 C   0  0  2  0  0  0  0  0  0  0  0  0
   22.7860   11.3350   23.8120 N   0  0  0  0  0  0  0  0  0  0  0  0
   22.7800    9.9140   23.7010 C   0  0  0  0  0  0  0  0  0  0  0  0
   22.9970    9.1110   24.7490 N   0  0  0  0  0  0  0  0  0  0  0  0
   23.0220   12.1410   25.0180 C   0  0  0  0  0  0  0  0  0  0  0  0
   29.1260    9.8230   21.7090 N   0  0  0  0  0  0  0  0  0  0  0  0
   23.4880   10.6920   20.5300 C   0  0  0  0  0  0  0  0  0  0  0  0
   23.2110   10.7890   19.1730 C   0  0  0  0  0  0  0  0  0  0  0  0
   24.2350   10.8650   18.2430 C   0  0  0  0  0  0  0  0  0  0  0  0
   25.5500   10.8410   18.6560 C   0  0  0  0  0  0  0  0  0  0  0  0
   25.8710   10.7460   20.0070 C   0  0  0  0  0  0  0  0  0  0  0  0
   24.8260   10.6610   20.9430 C   0  0  0  0  0  0  0  0  0  0  0  0
   29.8540   10.9130   21.4510 C   0  0  0  0  0  0  0  0  0  0  0  0
   27.8830    9.7800   21.2080 C   0  0  0  0  0  0  0  0  0  0  0  0
   27.3000   10.8010   20.4650 C   0  0  0  0  0  0  0  0  0  0  0  0
   28.0930   11.9190   20.2200 C   0  0  0  0  0  0  0  0  0  0  0  0
   29.3850   11.9780   20.7130 C   0  0  0  0  0  0  0  0  0  0  0  0
    0.0000    0.0000    0.0000 H   0  0  0  0  0  0  0  0  0  0  0  0
    0.0000    0.0000    0.0000 H   0  0  0  0  0  0  0  0  0  0  0  0
    0.0000    0.0000    0.0000 H   0  0  0  0  0  0  0  0  0  0  0  0
    0.0000    0.0000    0.0000 H   0  0  0  0  0  0  0  0  0  0  0  0
    0.0000    0.0000    0.0000 H   0  0  0  0  0  0  0  0  0  0  0  0
    0.0000    0.0000    0.0000 H   0  0  0  0  0  0  0  0  0  0  0  0
    0.0000    0.0000    0.0000 H   0  0  0  0  0  0  0  0  0  0  0  0
    0.0000    0.0000    0.0000 H   0  0  0  0  0  0  0  0  0  0  0  0
    0.0000    0.0000    0.0000 H   0  0  0  0  0  0  0  0  0  0  0  0
    0.0000    0.0000    0.0000 H   0  0  0  0  0  0  0  0  0  0  0  0
    0.0000    0.0000    0.0000 H   0  0  0  0  0  0  0  0  0  0  0  0
    0.0000    0.0000    0.0000 H   0  0  0  0  0  0  0  0  0  0  0  0
    0.0000    0.0000    0.0000 H   0  0  0  0  0  0  0  0  0  0  0  0
   10.8838    5.1976   10.5047 C   0  0  0  0  0  0  0  0  0  0  0  0
   10.0285    5.9437    9.9500 O   0  0  0  0  0  0  0  0  0  0  0  0
   10.8789    3.8546   10.1858 O   0  0  0  0  0  0  0  0  0  0  0  0
    9.9937    3.2436    9.2872 C   0  0  0  0  0  0  0  0  0  0  0  0
   10.1347    3.8526    7.9202 C   0  0  0  0  0  0  0  0  0  0  0  0
    8.9570    3.3042    9.6837 H   0  0  0  0  0  0  0  0  0  0  0  0
   10.2636    2.1508    9.2675 H   0  0  0  0  0  0  0  0  0  0  0  0
    9.8907    3.1395    7.1077 H   0  0  0  0  0  0  0  0  0  0  0  0
    9.5221    4.7748    7.8936 H   0  0  0  0  0  0  0  0  0  0  0  0
   11.1904    4.1721    7.7762 H   0  0  0  0  0  0  0  0  0  0  0  0
  1  3  2  0
  1  4  1  0
  2  4  1  0
  1  5  1  0
  2  6  1  0
  5  6  1  0
  6  7  2  3
  5  8  1  0
  4 10  1  0
 10 11  2  0
 11 12  1  0
 12 13  2  0
 13 14  1  0
 10 15  1  0
 14 15  2  0
  9 16  2  0
  9 17  1  0
 14 18  1  0
 17 18  2  0
 18 19  1  0
 16 20  1  0
 19 20  2  0
  2 21  1  0
  7 22  1  0
  8 23  1  0
  8 24  1  0
  8 25  1  0
 11 26  1  0
 12 27  1  0
 13 28  1  0
 15 29  1  0
 16 30  1  0
 17 31  1  0
 19 32  1  0
 20 33  1  0
 34 35  2  0
 34 36  1  0
 36 37  1  0
 37 38  1  0
 37 39  1  0
 37 40  1  0
 38 41  1  0
 38 42  1  0
 38 43  1  0
  4 34  1  6
M  END
>  <attachment_point>  (54) 
21

>  <score>  (54) 
<NA>

$$$$
4djw
     RDKit          3D

 39 41  0  0  0  0  0  0  0  0999 V2000
   22.4950   11.8750   22.5810 C   0  0  0  0  0  0  0  0  0  0  0  0
   22.5380    9.4930   22.4640 N   0  0  0  0  0  0  0  0  0  0  0  0
   22.3600   13.0630   22.3480 O   0  0  0  0  0  0  0  0  0  0  0  0
   22.3390   10.6680   21.5610 C   0  0  2  0  0  0  0  0  0  0  0  0
   22.7860   11.3350   23.8120 N   0  0  0  0  0  0  0  0  0  0  0  0
   22.7800    9.9140   23.7010 C   0  0  0  0  0  0  0  0  0  0  0  0
   22.9970    9.1110   24.7490 N   0  0  0  0  0  0  0  0  0  0  0  0
   23.0220   12.1410   25.0180 C   0  0  0  0  0  0  0  0  0  0  0  0
   29.1260    9.8230   21.7090 N   0  0  0  0  0  0  0  0  0  0  0  0
   23.4880   10.6920   20.5300 C   0  0  0  0  0  0  0  0  0  0  0  0
   23.2110   10.7890   19.1730 C   0  0  0  0  0  0  0  0  0  0  0  0
   24.2350   10.8650   18.2430 C   0  0  0  0  0  0  0  0  0  0  0  0
   25.5500   10.8410   18.6560 C   0  0  0  0  0  0  0  0  0  0  0  0
   25.8710   10.7460   20.0070 C   0  0  0  0  0  0  0  0  0  0  0  0
   24.8260   10.6610   20.9430 C   0  0  0  0  0  0  0  0  0  0  0  0
   29.8540   10.9130   21.4510 C   0  0  0  0  0  0  0  0  0  0  0  0
   27.8830    9.7800   21.2080 C   0  0  0  0  0  0  0  0  0  0  0  0
   27.3000   10.8010   20.4650 C   0  0  0  0  0  0  0  0  0  0  0  0
   28.0930   11.9190   20.2200 C   0  0  0  0  0  0  0  0  0  0  0  0
   29.3850   11.9780   20.7130 C   0  0  0  0  0  0  0  0  0  0  0  0
    0.0000    0.0000    0.0000 H   0  0  0  0  0  0  0  0  0  0  0  0
    0.0000    0.0000    0.0000 H   0  0  0  0  0  0  0  0  0  0  0  0
    0.0000    0.0000    0.0000 H   0  0  0  0  0  0  0  0  0  0  0  0
    0.0000    0.0000    0.0000 H   0  0  0  0  0  0  0  0  0  0  0  0
    0.0000    0.0000    0.0000 H   0  0  0  0  0  0  0  0  0  0  0  0
    0.0000    0.0000    0.0000 H   0  0  0  0  0  0  0  0  0  0  0  0
    0.0000    0.0000    0.0000 H   0  0  0  0  0  0  0  0  0  0  0  0
    0.0000    0.0000    0.0000 H   0  0  0  0  0  0  0  0  0  0  0  0
    0.0000    0.0000    0.0000 H   0  0  0  0  0  0  0  0  0  0  0  0
    0.0000    0.0000    0.0000 H   0  0  0  0  0  0  0  0  0  0  0  0
    0.0000    0.0000    0.0000 H   0  0  0  0  0  0  0  0  0  0  0  0
    0.0000    0.0000    0.0000 H   0  0  0  0  0  0  0  0  0  0  0  0
    0.0000    0.0000    0.0000 H   0  0  0  0  0  0  0  0  0  0  0  0
   10.8720    5.1919   10.4934 S   0  0  0  0  0  6  0  0  0  0  0  0
   11.4169    4.0311    9.3643 N   0  0  0  0  0  0  0  0  0  0  0  0
   10.3450    6.3705    9.7385 O   0  0  0  0  0  0  0  0  0  0  0  0
    9.7151    4.6463   11.3062 O   0  0  0  0  0  0  0  0  0  0  0  0
   12.1999    3.4532    9.7111 H   0  0  0  0  0  0  0  0  0  0  0  0
   11.5039    4.3710    8.3995 H   0  0  0  0  0  0  0  0  0  0  0  0
  1  3  2  0
  1  4  1  0
  2  4  1  0
  1  5  1  0
  2  6  1  0
  5  6  1  0
  6  7  2  3
  5  8  1  0
  4 10  1  6
 10 11  2  0
 11 12  1  0
 12 13  2  0
 13 14  1  0
 10 15  1  0
 14 15  2  0
  9 16  2  0
  9 17  1  0
 14 18  1  0
 17 18  2  0
 18 19  1  0
 16 20  1  0
 19 20  2  0
  2 21  1  0
  7 22  1  0
  8 23  1  0
  8 24  1  0
  8 25  1  0
 11 26  1  0
 12 27  1  0
 13 28  1  0
 15 29  1  0
 16 30  1  0
 17 31  1  0
 19 32  1  0
 20 33  1  0
 34 35  1  0
 34 36  2  0
 34 37  2  0
 35 38  1  0
 35 39  1  0
  4 34  1  0
M  END
>  <attachment_point>  (55) 
21

>  <score>  (55) 
<NA>

$$$$
4djw
     RDKit          3D

 49 52  0  0  0  0  0  0  0  0999 V2000
   22.4950   11.8750   22.5810 C   0  0  0  0  0  0  0  0  0  0  0  0
   22.5380    9.4930   22.4640 N   0  0  0  0  0  0  0  0  0  0  0  0
   22.3600   13.0630   22.3480 O   0  0  0  0  0  0  0  0  0  0  0  0
   22.3390   10.6680   21.5610 C   0  0  2  0  0  0  0  0  0  0  0  0
   22.7860   11.3350   23.8120 N   0  0  0  0  0  0  0  0  0  0  0  0
   22.7800    9.9140   23.7010 C   0  0  0  0  0  0  0  0  0  0  0  0
   22.9970    9.1110   24.7490 N   0  0  0  0  0  0  0  0  0  0  0  0
   23.0220   12.1410   25.0180 C   0  0  0  0  0  0  0  0  0  0  0  0
   29.1260    9.8230   21.7090 N   0  0  0  0  0  0  0  0  0  0  0  0
   23.4880   10.6920   20.5300 C   0  0  0  0  0  0  0  0  0  0  0  0
   23.2110   10.7890   19.1730 C   0  0  0  0  0  0  0  0  0  0  0  0
   24.2350   10.8650   18.2430 C   0  0  0  0  0  0  0  0  0  0  0  0
   25.5500   10.8410   18.6560 C   0  0  0  0  0  0  0  0  0  0  0  0
   25.8710   10.7460   20.0070 C   0  0  0  0  0  0  0  0  0  0  0  0
   24.8260   10.6610   20.9430 C   0  0  0  0  0  0  0  0  0  0  0  0
   29.8540   10.9130   21.4510 C   0  0  0  0  0  0  0  0  0  0  0  0
   27.8830    9.7800   21.2080 C   0  0  0  0  0  0  0  0  0  0  0  0
   27.3000   10.8010   20.4650 C   0  0  0  0  0  0  0  0  0  0  0  0
   28.0930   11.9190   20.2200 C   0  0  0  0  0  0  0  0  0  0  0  0
   29.3850   11.9780   20.7130 C   0  0  0  0  0  0  0  0  0  0  0  0
    0.0000    0.0000    0.0000 H   0  0  0  0  0  0  0  0  0  0  0  0
    0.0000    0.0000    0.0000 H   0  0  0  0  0  0  0  0  0  0  0  0
    0.0000    0.0000    0.0000 H   0  0  0  0  0  0  0  0  0  0  0  0
    0.0000    0.0000    0.0000 H   0  0  0  0  0  0  0  0  0  0  0  0
    0.0000    0.0000    0.0000 H   0  0  0  0  0  0  0  0  0  0  0  0
    0.0000    0.0000    0.0000 H   0  0  0  0  0  0  0  0  0  0  0  0
    0.0000    0.0000    0.0000 H   0  0  0  0  0  0  0  0  0  0  0  0
    0.0000    0.0000    0.0000 H   0  0  0  0  0  0  0  0  0  0  0  0
    0.0000    0.0000    0.0000 H   0  0  0  0  0  0  0  0  0  0  0  0
    0.0000    0.0000    0.0000 H   0  0  0  0  0  0  0  0  0  0  0  0
    0.0000    0.0000    0.0000 H   0  0  0  0  0  0  0  0  0  0  0  0
    0.0000    0.0000    0.0000 H   0  0  0  0  0  0  0  0  0  0  0  0
    0.0000    0.0000    0.0000 H   0  0  0  0  0  0  0  0  0  0  0  0
   10.9045    5.2074   10.5247 N   0  0  0  0  0  0  0  0  0  0  0  0
   10.4347    3.8582   10.7826 C   0  0  0  0  0  0  0  0  0  0  0  0
   11.5501    2.8768   10.7368 C   0  0  0  0  0  0  0  0  0  0  0  0
   12.2659    2.5679   11.8760 C   0  0  0  0  0  0  0  0  0  0  0  0
   13.2920    1.6575   11.8065 C   0  0  0  0  0  0  0  0  0  0  0  0
   13.6668    1.0127   10.6444 C   0  0  0  0  0  0  0  0  0  0  0  0
   12.9383    1.3361    9.5175 C   0  0  0  0  0  0  0  0  0  0  0  0
   11.8992    2.2496    9.5573 C   0  0  0  0  0  0  0  0  0  0  0  0
   10.1517    5.8855   10.3986 H   0  0  0  0  0  0  0  0  0  0  0  0
    9.9716    3.8946   11.8110 H   0  0  0  0  0  0  0  0  0  0  0  0
    9.6173    3.5992   10.0973 H   0  0  0  0  0  0  0  0  0  0  0  0
   11.9666    3.0781   12.7872 H   0  0  0  0  0  0  0  0  0  0  0  0
   13.8512    1.4241   12.7256 H   0  0  0  0  0  0  0  0  0  0  0  0
   14.4834    0.2941   10.6107 H   0  0  0  0  0  0  0  0  0  0  0  0
   13.2181    0.8404    8.5973 H   0  0  0  0  0  0  0  0  0  0  0  0
   11.3406    2.4900    8.6657 H   0  0  0  0  0  0  0  0  0  0  0  0
  1  3  2  0
  1  4  1  0
  2  4  1  0
  1  5  1  0
  2  6  1  0
  5  6  1  0
  6  7  2  3
  5  8  1  0
  4 10  1  0
 10 11  2  0
 11 12  1  0
 12 13  2  0
 13 14  1  0
 10 15  1  0
 14 15  2  0
  9 16  2  0
  9 17  1  0
 14 18  1  0
 17 18  2  0
 18 19  1  0
 16 20  1  0
 19 20  2  0
  2 21  1  0
  7 22  1  0
  8 23  1  0
  8 24  1  0
  8 25  1  0
 11 26  1  0
 12 27  1  0
 13 28  1  0
 15 29  1  0
 16 30  1  0
 17 31  1  0
 19 32  1  0
 20 33  1  0
 34 35  1  0
 35 36  1  0
 36 37  2  0
 37 38  1  0
 38 39  2  0
 39 40  1  0
 40 41  2  0
 41 36  1  0
 34 42  1  0
 35 43  1  0
 35 44  1  0
 37 45  1  0
 38 46  1  0
 39 47  1  0
 40 48  1  0
 41 49  1  0
  4 34  1  6
M  END
>  <attachment_point>  (56) 
21

>  <score>  (56) 
<NA>

$$$$
4djw
     RDKit          3D

 41 43  0  0  0  0  0  0  0  0999 V2000
   22.4950   11.8750   22.5810 C   0  0  0  0  0  0  0  0  0  0  0  0
   22.5380    9.4930   22.4640 N   0  0  0  0  0  0  0  0  0  0  0  0
   22.3600   13.0630   22.3480 O   0  0  0  0  0  0  0  0  0  0  0  0
   22.3390   10.6680   21.5610 C   0  0  2  0  0  0  0  0  0  0  0  0
   22.7860   11.3350   23.8120 N   0  0  0  0  0  0  0  0  0  0  0  0
   22.7800    9.9140   23.7010 C   0  0  0  0  0  0  0  0  0  0  0  0
   22.9970    9.1110   24.7490 N   0  0  0  0  0  0  0  0  0  0  0  0
   23.0220   12.1410   25.0180 C   0  0  0  0  0  0  0  0  0  0  0  0
   29.1260    9.8230   21.7090 N   0  0  0  0  0  0  0  0  0  0  0  0
   23.4880   10.6920   20.5300 C   0  0  0  0  0  0  0  0  0  0  0  0
   23.2110   10.7890   19.1730 C   0  0  0  0  0  0  0  0  0  0  0  0
   24.2350   10.8650   18.2430 C   0  0  0  0  0  0  0  0  0  0  0  0
   25.5500   10.8410   18.6560 C   0  0  0  0  0  0  0  0  0  0  0  0
   25.8710   10.7460   20.0070 C   0  0  0  0  0  0  0  0  0  0  0  0
   24.8260   10.6610   20.9430 C   0  0  0  0  0  0  0  0  0  0  0  0
   29.8540   10.9130   21.4510 C   0  0  0  0  0  0  0  0  0  0  0  0
   27.8830    9.7800   21.2080 C   0  0  0  0  0  0  0  0  0  0  0  0
   27.3000   10.8010   20.4650 C   0  0  0  0  0  0  0  0  0  0  0  0
   28.0930   11.9190   20.2200 C   0  0  0  0  0  0  0  0  0  0  0  0
   29.3850   11.9780   20.7130 C   0  0  0  0  0  0  0  0  0  0  0  0
    0.0000    0.0000    0.0000 H   0  0  0  0  0  0  0  0  0  0  0  0
    0.0000    0.0000    0.0000 H   0  0  0  0  0  0  0  0  0  0  0  0
    0.0000    0.0000    0.0000 H   0  0  0  0  0  0  0  0  0  0  0  0
    0.0000    0.0000    0.0000 H   0  0  0  0  0  0  0  0  0  0  0  0
    0.0000    0.0000    0.0000 H   0  0  0  0  0  0  0  0  0  0  0  0
    0.0000    0.0000    0.0000 H   0  0  0  0  0  0  0  0  0  0  0  0
    0.0000    0.0000    0.0000 H   0  0  0  0  0  0  0  0  0  0  0  0
    0.0000    0.0000    0.0000 H   0  0  0  0  0  0  0  0  0  0  0  0
    0.0000    0.0000    0.0000 H   0  0  0  0  0  0  0  0  0  0  0  0
    0.0000    0.0000    0.0000 H   0  0  0  0  0  0  0  0  0  0  0  0
    0.0000    0.0000    0.0000 H   0  0  0  0  0  0  0  0  0  0  0  0
    0.0000    0.0000    0.0000 H   0  0  0  0  0  0  0  0  0  0  0  0
    0.0000    0.0000    0.0000 H   0  0  0  0  0  0  0  0  0  0  0  0
   10.8577    5.1851   10.4796 C   0  0  0  0  0  0  0  0  0  0  0  0
    9.6381    5.2470   10.7435 O   0  0  0  0  0  0  0  0  0  0  0  0
   11.3286    4.6675    9.2733 N   0  0  0  0  0  0  0  0  0  0  0  0
   10.4061    4.1724    8.2608 C   0  0  0  0  0  0  0  0  0  0  0  0
   12.3515    4.5977    9.0117 H   0  0  0  0  0  0  0  0  0  0  0  0
    9.3528    4.2921    8.5622 H   0  0  0  0  0  0  0  0  0  0  0  0
   10.6023    3.1034    8.1474 H   0  0  0  0  0  0  0  0  0  0  0  0
   10.6357    4.6746    7.3022 H   0  0  0  0  0  0  0  0  0  0  0  0
  1  3  2  0
  1  4  1  0
  2  4  1  0
  1  5  1  0
  2  6  1  0
  5  6  1  0
  6  7  2  3
  5  8  1  0
  4 10  1  0
 10 11  2  0
 11 12  1  0
 12 13  2  0
 13 14  1  0
 10 15  1  0
 14 15  2  0
  9 16  2  0
  9 17  1  0
 14 18  1  0
 17 18  2  0
 18 19  1  0
 16 20  1  0
 19 20  2  0
  2 21  1  0
  7 22  1  0
  8 23  1  0
  8 24  1  0
  8 25  1  0
 11 26  1  0
 12 27  1  0
 13 28  1  0
 15 29  1  0
 16 30  1  0
 17 31  1  0
 19 32  1  0
 20 33  1  0
 34 35  2  0
 34 36  1  0
 36 37  1  0
 36 38  1  0
 37 39  1  0
 37 40  1  0
 37 41  1  0
  4 34  1  6
M  END
>  <attachment_point>  (57) 
21

>  <score>  (57) 
<NA>

$$$$
4djw
     RDKit          3D

 45 47  0  0  0  0  0  0  0  0999 V2000
   22.4950   11.8750   22.5810 C   0  0  0  0  0  0  0  0  0  0  0  0
   22.5380    9.4930   22.4640 N   0  0  0  0  0  0  0  0  0  0  0  0
   22.3600   13.0630   22.3480 O   0  0  0  0  0  0  0  0  0  0  0  0
   22.3390   10.6680   21.5610 C   0  0  2  0  0  0  0  0  0  0  0  0
   22.7860   11.3350   23.8120 N   0  0  0  0  0  0  0  0  0  0  0  0
   22.7800    9.9140   23.7010 C   0  0  0  0  0  0  0  0  0  0  0  0
   22.9970    9.1110   24.7490 N   0  0  0  0  0  0  0  0  0  0  0  0
   23.0220   12.1410   25.0180 C   0  0  0  0  0  0  0  0  0  0  0  0
   29.1260    9.8230   21.7090 N   0  0  0  0  0  0  0  0  0  0  0  0
   23.4880   10.6920   20.5300 C   0  0  0  0  0  0  0  0  0  0  0  0
   23.2110   10.7890   19.1730 C   0  0  0  0  0  0  0  0  0  0  0  0
   24.2350   10.8650   18.2430 C   0  0  0  0  0  0  0  0  0  0  0  0
   25.5500   10.8410   18.6560 C   0  0  0  0  0  0  0  0  0  0  0  0
   25.8710   10.7460   20.0070 C   0  0  0  0  0  0  0  0  0  0  0  0
   24.8260   10.6610   20.9430 C   0  0  0  0  0  0  0  0  0  0  0  0
   29.8540   10.9130   21.4510 C   0  0  0  0  0  0  0  0  0  0  0  0
   27.8830    9.7800   21.2080 C   0  0  0  0  0  0  0  0  0  0  0  0
   27.3000   10.8010   20.4650 C   0  0  0  0  0  0  0  0  0  0  0  0
   28.0930   11.9190   20.2200 C   0  0  0  0  0  0  0  0  0  0  0  0
   29.3850   11.9780   20.7130 C   0  0  0  0  0  0  0  0  0  0  0  0
    0.0000    0.0000    0.0000 H   0  0  0  0  0  0  0  0  0  0  0  0
    0.0000    0.0000    0.0000 H   0  0  0  0  0  0  0  0  0  0  0  0
    0.0000    0.0000    0.0000 H   0  0  0  0  0  0  0  0  0  0  0  0
    0.0000    0.0000    0.0000 H   0  0  0  0  0  0  0  0  0  0  0  0
    0.0000    0.0000    0.0000 H   0  0  0  0  0  0  0  0  0  0  0  0
    0.0000    0.0000    0.0000 H   0  0  0  0  0  0  0  0  0  0  0  0
    0.0000    0.0000    0.0000 H   0  0  0  0  0  0  0  0  0  0  0  0
    0.0000    0.0000    0.0000 H   0  0  0  0  0  0  0  0  0  0  0  0
    0.0000    0.0000    0.0000 H   0  0  0  0  0  0  0  0  0  0  0  0
    0.0000    0.0000    0.0000 H   0  0  0  0  0  0  0  0  0  0  0  0
    0.0000    0.0000    0.0000 H   0  0  0  0  0  0  0  0  0  0  0  0
    0.0000    0.0000    0.0000 H   0  0  0  0  0  0  0  0  0  0  0  0
    0.0000    0.0000    0.0000 H   0  0  0  0  0  0  0  0  0  0  0  0
   10.8711    5.1915   10.4924 C   0  0  0  0  0  0  0  0  0  0  0  0
    9.5528    5.6005   10.7608 N   0  0  0  0  0  0  0  0  0  0  0  0
    9.2430    6.9561   10.8041 C   0  0  0  0  0  0  0  0  0  0  0  0
    8.5197    4.6584   10.6493 C   0  0  0  0  0  0  0  0  0  0  0  0
   11.2875    5.4875    9.5120 H   0  0  0  0  0  0  0  0  0  0  0  0
   10.9424    4.0867   10.5517 H   0  0  0  0  0  0  0  0  0  0  0  0
    8.6843    7.2392    9.8637 H   0  0  0  0  0  0  0  0  0  0  0  0
    8.4900    7.1501   11.6230 H   0  0  0  0  0  0  0  0  0  0  0  0
   10.1327    7.5653   10.9671 H   0  0  0  0  0  0  0  0  0  0  0  0
    8.7159    3.7898   11.3342 H   0  0  0  0  0  0  0  0  0  0  0  0
    7.5501    5.1397   10.8621 H   0  0  0  0  0  0  0  0  0  0  0  0
    8.4579    4.2425    9.6297 H   0  0  0  0  0  0  0  0  0  0  0  0
  1  3  2  0
  1  4  1  0
  2  4  1  0
  1  5  1  0
  2  6  1  0
  5  6  1  0
  6  7  2  3
  5  8  1  0
  4 10  1  0
 10 11  2  0
 11 12  1  0
 12 13  2  0
 13 14  1  0
 10 15  1  0
 14 15  2  0
  9 16  2  0
  9 17  1  0
 14 18  1  0
 17 18  2  0
 18 19  1  0
 16 20  1  0
 19 20  2  0
  2 21  1  0
  7 22  1  0
  8 23  1  0
  8 24  1  0
  8 25  1  0
 11 26  1  0
 12 27  1  0
 13 28  1  0
 15 29  1  0
 16 30  1  0
 17 31  1  0
 19 32  1  0
 20 33  1  0
 34 35  1  0
 35 36  1  0
 35 37  1  0
 34 38  1  0
 34 39  1  0
 36 40  1  0
 36 41  1  0
 36 42  1  0
 37 43  1  0
 37 44  1  0
 37 45  1  0
  4 34  1  6
M  END
>  <attachment_point>  (58) 
21

>  <score>  (58) 
<NA>

$$$$
4djw
     RDKit          3D

 44 46  0  0  0  0  0  0  0  0999 V2000
   22.4950   11.8750   22.5810 C   0  0  0  0  0  0  0  0  0  0  0  0
   22.5380    9.4930   22.4640 N   0  0  0  0  0  0  0  0  0  0  0  0
   22.3600   13.0630   22.3480 O   0  0  0  0  0  0  0  0  0  0  0  0
   22.3390   10.6680   21.5610 C   0  0  2  0  0  0  0  0  0  0  0  0
   22.7860   11.3350   23.8120 N   0  0  0  0  0  0  0  0  0  0  0  0
   22.7800    9.9140   23.7010 C   0  0  0  0  0  0  0  0  0  0  0  0
   22.9970    9.1110   24.7490 N   0  0  0  0  0  0  0  0  0  0  0  0
   23.0220   12.1410   25.0180 C   0  0  0  0  0  0  0  0  0  0  0  0
   29.1260    9.8230   21.7090 N   0  0  0  0  0  0  0  0  0  0  0  0
   23.4880   10.6920   20.5300 C   0  0  0  0  0  0  0  0  0  0  0  0
   23.2110   10.7890   19.1730 C   0  0  0  0  0  0  0  0  0  0  0  0
   24.2350   10.8650   18.2430 C   0  0  0  0  0  0  0  0  0  0  0  0
   25.5500   10.8410   18.6560 C   0  0  0  0  0  0  0  0  0  0  0  0
   25.8710   10.7460   20.0070 C   0  0  0  0  0  0  0  0  0  0  0  0
   24.8260   10.6610   20.9430 C   0  0  0  0  0  0  0  0  0  0  0  0
   29.8540   10.9130   21.4510 C   0  0  0  0  0  0  0  0  0  0  0  0
   27.8830    9.7800   21.2080 C   0  0  0  0  0  0  0  0  0  0  0  0
   27.3000   10.8010   20.4650 C   0  0  0  0  0  0  0  0  0  0  0  0
   28.0930   11.9190   20.2200 C   0  0  0  0  0  0  0  0  0  0  0  0
   29.3850   11.9780   20.7130 C   0  0  0  0  0  0  0  0  0  0  0  0
    0.0000    0.0000    0.0000 H   0  0  0  0  0  0  0  0  0  0  0  0
    0.0000    0.0000    0.0000 H   0  0  0  0  0  0  0  0  0  0  0  0
    0.0000    0.0000    0.0000 H   0  0  0  0  0  0  0  0  0  0  0  0
    0.0000    0.0000    0.0000 H   0  0  0  0  0  0  0  0  0  0  0  0
    0.0000    0.0000    0.0000 H   0  0  0  0  0  0  0  0  0  0  0  0
    0.0000    0.0000    0.0000 H   0  0  0  0  0  0  0  0  0  0  0  0
    0.0000    0.0000    0.0000 H   0  0  0  0  0  0  0  0  0  0  0  0
    0.0000    0.0000    0.0000 H   0  0  0  0  0  0  0  0  0  0  0  0
    0.0000    0.0000    0.0000 H   0  0  0  0  0  0  0  0  0  0  0  0
    0.0000    0.0000    0.0000 H   0  0  0  0  0  0  0  0  0  0  0  0
    0.0000    0.0000    0.0000 H   0  0  0  0  0  0  0  0  0  0  0  0
    0.0000    0.0000    0.0000 H   0  0  0  0  0  0  0  0  0  0  0  0
    0.0000    0.0000    0.0000 H   0  0  0  0  0  0  0  0  0  0  0  0
   10.8864    5.1988   10.5072 C   0  0  0  0  0  0  0  0  0  0  0  0
    9.6627    5.4541   10.6365 O   0  0  0  0  0  0  0  0  0  0  0  0
   11.2892    4.4273    9.3923 N   0  0  0  0  0  0  0  0  0  0  0  0
   10.2713    3.9805    8.4714 C   0  0  0  0  0  0  0  0  0  0  0  0
   12.6709    4.0958    9.1790 C   0  0  0  0  0  0  0  0  0  0  0  0
   10.6807    3.4903    7.5738 H   0  0  0  0  0  0  0  0  0  0  0  0
    9.6650    4.8975    8.2157 H   0  0  0  0  0  0  0  0  0  0  0  0
    9.6096    3.2802    9.0595 H   0  0  0  0  0  0  0  0  0  0  0  0
   13.2416    5.0473    9.1347 H   0  0  0  0  0  0  0  0  0  0  0  0
   12.7918    3.5985    8.2038 H   0  0  0  0  0  0  0  0  0  0  0  0
   13.0277    3.5302   10.0360 H   0  0  0  0  0  0  0  0  0  0  0  0
  1  3  2  0
  1  4  1  0
  2  4  1  0
  1  5  1  0
  2  6  1  0
  5  6  1  0
  6  7  2  3
  5  8  1  0
  4 10  1  0
 10 11  2  0
 11 12  1  0
 12 13  2  0
 13 14  1  0
 10 15  1  0
 14 15  2  0
  9 16  2  0
  9 17  1  0
 14 18  1  0
 17 18  2  0
 18 19  1  0
 16 20  1  0
 19 20  2  0
  2 21  1  0
  7 22  1  0
  8 23  1  0
  8 24  1  0
  8 25  1  0
 11 26  1  0
 12 27  1  0
 13 28  1  0
 15 29  1  0
 16 30  1  0
 17 31  1  0
 19 32  1  0
 20 33  1  0
 34 35  2  0
 34 36  1  0
 36 37  1  0
 36 38  1  0
 37 39  1  0
 37 40  1  0
 37 41  1  0
 38 42  1  0
 38 43  1  0
 38 44  1  0
  4 34  1  6
M  END
>  <attachment_point>  (59) 
21

>  <score>  (59) 
<NA>

$$$$
4djw
     RDKit          3D

 44 47  0  0  0  0  0  0  0  0999 V2000
   22.4950   11.8750   22.5810 C   0  0  0  0  0  0  0  0  0  0  0  0
   22.5380    9.4930   22.4640 N   0  0  0  0  0  0  0  0  0  0  0  0
   22.3600   13.0630   22.3480 O   0  0  0  0  0  0  0  0  0  0  0  0
   22.3390   10.6680   21.5610 C   0  0  2  0  0  0  0  0  0  0  0  0
   22.7860   11.3350   23.8120 N   0  0  0  0  0  0  0  0  0  0  0  0
   22.7800    9.9140   23.7010 C   0  0  0  0  0  0  0  0  0  0  0  0
   22.9970    9.1110   24.7490 N   0  0  0  0  0  0  0  0  0  0  0  0
   23.0220   12.1410   25.0180 C   0  0  0  0  0  0  0  0  0  0  0  0
   29.1260    9.8230   21.7090 N   0  0  0  0  0  0  0  0  0  0  0  0
   23.4880   10.6920   20.5300 C   0  0  0  0  0  0  0  0  0  0  0  0
   23.2110   10.7890   19.1730 C   0  0  0  0  0  0  0  0  0  0  0  0
   24.2350   10.8650   18.2430 C   0  0  0  0  0  0  0  0  0  0  0  0
   25.5500   10.8410   18.6560 C   0  0  0  0  0  0  0  0  0  0  0  0
   25.8710   10.7460   20.0070 C   0  0  0  0  0  0  0  0  0  0  0  0
   24.8260   10.6610   20.9430 C   0  0  0  0  0  0  0  0  0  0  0  0
   29.8540   10.9130   21.4510 C   0  0  0  0  0  0  0  0  0  0  0  0
   27.8830    9.7800   21.2080 C   0  0  0  0  0  0  0  0  0  0  0  0
   27.3000   10.8010   20.4650 C   0  0  0  0  0  0  0  0  0  0  0  0
   28.0930   11.9190   20.2200 C   0  0  0  0  0  0  0  0  0  0  0  0
   29.3850   11.9780   20.7130 C   0  0  0  0  0  0  0  0  0  0  0  0
    0.0000    0.0000    0.0000 H   0  0  0  0  0  0  0  0  0  0  0  0
    0.0000    0.0000    0.0000 H   0  0  0  0  0  0  0  0  0  0  0  0
    0.0000    0.0000    0.0000 H   0  0  0  0  0  0  0  0  0  0  0  0
    0.0000    0.0000    0.0000 H   0  0  0  0  0  0  0  0  0  0  0  0
    0.0000    0.0000    0.0000 H   0  0  0  0  0  0  0  0  0  0  0  0
    0.0000    0.0000    0.0000 H   0  0  0  0  0  0  0  0  0  0  0  0
    0.0000    0.0000    0.0000 H   0  0  0  0  0  0  0  0  0  0  0  0
    0.0000    0.0000    0.0000 H   0  0  0  0  0  0  0  0  0  0  0  0
    0.0000    0.0000    0.0000 H   0  0  0  0  0  0  0  0  0  0  0  0
    0.0000    0.0000    0.0000 H   0  0  0  0  0  0  0  0  0  0  0  0
    0.0000    0.0000    0.0000 H   0  0  0  0  0  0  0  0  0  0  0  0
    0.0000    0.0000    0.0000 H   0  0  0  0  0  0  0  0  0  0  0  0
    0.0000    0.0000    0.0000 H   0  0  0  0  0  0  0  0  0  0  0  0
   10.8762    5.1939   10.4974 C   0  0  0  0  0  0  0  0  0  0  0  0
   10.5636    3.8563   10.3649 C   0  0  0  0  0  0  0  0  0  0  0  0
    9.6064    3.4454    9.4342 C   0  0  0  0  0  0  0  0  0  0  0  0
    9.0000    4.4271    8.6679 C   0  0  0  0  0  0  0  0  0  0  0  0
    9.3013    5.7669    8.7884 C   0  0  0  0  0  0  0  0  0  0  0  0
    8.4933    6.9733    7.7819 Cl  0  0  0  0  0  0  0  0  0  0  0  0
   10.2495    6.1501    9.7137 C   0  0  0  0  0  0  0  0  0  0  0  0
   11.0680    3.1216   10.9905 H   0  0  0  0  0  0  0  0  0  0  0  0
    9.3556    2.4179    9.3213 H   0  0  0  0  0  0  0  0  0  0  0  0
    8.2410    4.1815    7.9186 H   0  0  0  0  0  0  0  0  0  0  0  0
   10.4736    7.2136    9.7940 H   0  0  0  0  0  0  0  0  0  0  0  0
  1  3  2  0
  1  4  1  0
  2  4  1  0
  1  5  1  0
  2  6  1  0
  5  6  1  0
  6  7  2  3
  5  8  1  0
  4 10  1  6
 10 11  2  0
 11 12  1  0
 12 13  2  0
 13 14  1  0
 10 15  1  0
 14 15  2  0
  9 16  2  0
  9 17  1  0
 14 18  1  0
 17 18  2  0
 18 19  1  0
 16 20  1  0
 19 20  2  0
  2 21  1  0
  7 22  1  0
  8 23  1  0
  8 24  1  0
  8 25  1  0
 11 26  1  0
 12 27  1  0
 13 28  1  0
 15 29  1  0
 16 30  1  0
 17 31  1  0
 19 32  1  0
 20 33  1  0
 34 35  2  0
 35 36  1  0
 36 37  2  0
 37 38  1  0
 38 39  1  0
 38 40  2  0
 40 34  1  0
 35 41  1  0
 36 42  1  0
 37 43  1  0
 40 44  1  0
  4 34  1  0
M  END
>  <attachment_point>  (60) 
21

>  <score>  (60) 
<NA>

$$$$
4djw
     RDKit          3D

 38 40  0  0  0  0  0  0  0  0999 V2000
   22.4950   11.8750   22.5810 C   0  0  0  0  0  0  0  0  0  0  0  0
   22.5380    9.4930   22.4640 N   0  0  0  0  0  0  0  0  0  0  0  0
   22.3600   13.0630   22.3480 O   0  0  0  0  0  0  0  0  0  0  0  0
   22.3390   10.6680   21.5610 C   0  0  2  0  0  0  0  0  0  0  0  0
   22.7860   11.3350   23.8120 N   0  0  0  0  0  0  0  0  0  0  0  0
   22.7800    9.9140   23.7010 C   0  0  0  0  0  0  0  0  0  0  0  0
   22.9970    9.1110   24.7490 N   0  0  0  0  0  0  0  0  0  0  0  0
   23.0220   12.1410   25.0180 C   0  0  0  0  0  0  0  0  0  0  0  0
   29.1260    9.8230   21.7090 N   0  0  0  0  0  0  0  0  0  0  0  0
   23.4880   10.6920   20.5300 C   0  0  0  0  0  0  0  0  0  0  0  0
   23.2110   10.7890   19.1730 C   0  0  0  0  0  0  0  0  0  0  0  0
   24.2350   10.8650   18.2430 C   0  0  0  0  0  0  0  0  0  0  0  0
   25.5500   10.8410   18.6560 C   0  0  0  0  0  0  0  0  0  0  0  0
   25.8710   10.7460   20.0070 C   0  0  0  0  0  0  0  0  0  0  0  0
   24.8260   10.6610   20.9430 C   0  0  0  0  0  0  0  0  0  0  0  0
   29.8540   10.9130   21.4510 C   0  0  0  0  0  0  0  0  0  0  0  0
   27.8830    9.7800   21.2080 C   0  0  0  0  0  0  0  0  0  0  0  0
   27.3000   10.8010   20.4650 C   0  0  0  0  0  0  0  0  0  0  0  0
   28.0930   11.9190   20.2200 C   0  0  0  0  0  0  0  0  0  0  0  0
   29.3850   11.9780   20.7130 C   0  0  0  0  0  0  0  0  0  0  0  0
    0.0000    0.0000    0.0000 H   0  0  0  0  0  0  0  0  0  0  0  0
    0.0000    0.0000    0.0000 H   0  0  0  0  0  0  0  0  0  0  0  0
    0.0000    0.0000    0.0000 H   0  0  0  0  0  0  0  0  0  0  0  0
    0.0000    0.0000    0.0000 H   0  0  0  0  0  0  0  0  0  0  0  0
    0.0000    0.0000    0.0000 H   0  0  0  0  0  0  0  0  0  0  0  0
    0.0000    0.0000    0.0000 H   0  0  0  0  0  0  0  0  0  0  0  0
    0.0000    0.0000    0.0000 H   0  0  0  0  0  0  0  0  0  0  0  0
    0.0000    0.0000    0.0000 H   0  0  0  0  0  0  0  0  0  0  0  0
    0.0000    0.0000    0.0000 H   0  0  0  0  0  0  0  0  0  0  0  0
    0.0000    0.0000    0.0000 H   0  0  0  0  0  0  0  0  0  0  0  0
    0.0000    0.0000    0.0000 H   0  0  0  0  0  0  0  0  0  0  0  0
    0.0000    0.0000    0.0000 H   0  0  0  0  0  0  0  0  0  0  0  0
    0.0000    0.0000    0.0000 H   0  0  0  0  0  0  0  0  0  0  0  0
   10.9382    5.2235   10.5573 S   0  0  0  0  0  0  0  0  0  0  0  0
   11.1744    4.4323    8.9555 C   0  0  0  0  0  0  0  0  0  0  0  0
   10.4494    4.8217    8.2096 H   0  0  0  0  0  0  0  0  0  0  0  0
   12.2224    4.6143    8.6219 H   0  0  0  0  0  0  0  0  0  0  0  0
   10.9691    3.3396    9.0537 H   0  0  0  0  0  0  0  0  0  0  0  0
  1  3  2  0
  1  4  1  0
  2  4  1  0
  1  5  1  0
  2  6  1  0
  5  6  1  0
  6  7  2  3
  5  8  1  0
  4 10  1  0
 10 11  2  0
 11 12  1  0
 12 13  2  0
 13 14  1  0
 10 15  1  0
 14 15  2  0
  9 16  2  0
  9 17  1  0
 14 18  1  0
 17 18  2  0
 18 19  1  0
 16 20  1  0
 19 20  2  0
  2 21  1  0
  7 22  1  0
  8 23  1  0
  8 24  1  0
  8 25  1  0
 11 26  1  0
 12 27  1  0
 13 28  1  0
 15 29  1  0
 16 30  1  0
 17 31  1  0
 19 32  1  0
 20 33  1  0
 34 35  1  0
 35 36  1  0
 35 37  1  0
 35 38  1  0
  4 34  1  6
M  END
>  <attachment_point>  (61) 
21

>  <score>  (61) 
<NA>

$$$$
4djw
     RDKit          3D

 46 49  0  0  0  0  0  0  0  0999 V2000
   22.4950   11.8750   22.5810 C   0  0  0  0  0  0  0  0  0  0  0  0
   22.5380    9.4930   22.4640 N   0  0  0  0  0  0  0  0  0  0  0  0
   22.3600   13.0630   22.3480 O   0  0  0  0  0  0  0  0  0  0  0  0
   22.3390   10.6680   21.5610 C   0  0  2  0  0  0  0  0  0  0  0  0
   22.7860   11.3350   23.8120 N   0  0  0  0  0  0  0  0  0  0  0  0
   22.7800    9.9140   23.7010 C   0  0  0  0  0  0  0  0  0  0  0  0
   22.9970    9.1110   24.7490 N   0  0  0  0  0  0  0  0  0  0  0  0
   23.0220   12.1410   25.0180 C   0  0  0  0  0  0  0  0  0  0  0  0
   29.1260    9.8230   21.7090 N   0  0  0  0  0  0  0  0  0  0  0  0
   23.4880   10.6920   20.5300 C   0  0  0  0  0  0  0  0  0  0  0  0
   23.2110   10.7890   19.1730 C   0  0  0  0  0  0  0  0  0  0  0  0
   24.2350   10.8650   18.2430 C   0  0  0  0  0  0  0  0  0  0  0  0
   25.5500   10.8410   18.6560 C   0  0  0  0  0  0  0  0  0  0  0  0
   25.8710   10.7460   20.0070 C   0  0  0  0  0  0  0  0  0  0  0  0
   24.8260   10.6610   20.9430 C   0  0  0  0  0  0  0  0  0  0  0  0
   29.8540   10.9130   21.4510 C   0  0  0  0  0  0  0  0  0  0  0  0
   27.8830    9.7800   21.2080 C   0  0  0  0  0  0  0  0  0  0  0  0
   27.3000   10.8010   20.4650 C   0  0  0  0  0  0  0  0  0  0  0  0
   28.0930   11.9190   20.2200 C   0  0  0  0  0  0  0  0  0  0  0  0
   29.3850   11.9780   20.7130 C   0  0  0  0  0  0  0  0  0  0  0  0
    0.0000    0.0000    0.0000 H   0  0  0  0  0  0  0  0  0  0  0  0
    0.0000    0.0000    0.0000 H   0  0  0  0  0  0  0  0  0  0  0  0
    0.0000    0.0000    0.0000 H   0  0  0  0  0  0  0  0  0  0  0  0
    0.0000    0.0000    0.0000 H   0  0  0  0  0  0  0  0  0  0  0  0
    0.0000    0.0000    0.0000 H   0  0  0  0  0  0  0  0  0  0  0  0
    0.0000    0.0000    0.0000 H   0  0  0  0  0  0  0  0  0  0  0  0
    0.0000    0.0000    0.0000 H   0  0  0  0  0  0  0  0  0  0  0  0
    0.0000    0.0000    0.0000 H   0  0  0  0  0  0  0  0  0  0  0  0
    0.0000    0.0000    0.0000 H   0  0  0  0  0  0  0  0  0  0  0  0
    0.0000    0.0000    0.0000 H   0  0  0  0  0  0  0  0  0  0  0  0
    0.0000    0.0000    0.0000 H   0  0  0  0  0  0  0  0  0  0  0  0
    0.0000    0.0000    0.0000 H   0  0  0  0  0  0  0  0  0  0  0  0
    0.0000    0.0000    0.0000 H   0  0  0  0  0  0  0  0  0  0  0  0
   10.7694    5.1429   10.3943 C   0  0  0  0  0  0  0  0  0  0  0  0
   10.5281    6.0145    9.6579 O   0  0  0  0  0  0  0  0  0  0  0  0
   10.4670    3.8174   10.7054 C   0  0  0  0  0  0  0  0  0  0  0  0
    9.5259    3.0939    9.9370 C   0  0  0  0  0  0  0  0  0  0  0  0
    9.2313    1.8001   10.2411 C   0  0  0  0  0  0  0  0  0  0  0  0
    9.8163    1.1332   11.2888 C   0  0  0  0  0  0  0  0  0  0  0  0
   10.7302    1.8264   12.0398 C   0  0  0  0  0  0  0  0  0  0  0  0
   11.0440    3.1236   11.7570 C   0  0  0  0  0  0  0  0  0  0  0  0
    9.0945    3.6703    9.1214 H   0  0  0  0  0  0  0  0  0  0  0  0
    8.5050    1.2950    9.6211 H   0  0  0  0  0  0  0  0  0  0  0  0
    9.5675    0.0855   11.5226 H   0  0  0  0  0  0  0  0  0  0  0  0
   11.2184    1.3474   12.8741 H   0  0  0  0  0  0  0  0  0  0  0  0
   11.7910    3.6000   12.4168 H   0  0  0  0  0  0  0  0  0  0  0  0
  1  3  2  0
  1  4  1  0
  2  4  1  0
  1  5  1  0
  2  6  1  0
  5  6  1  0
  6  7  2  3
  5  8  1  0
  4 10  1  0
 10 11  2  0
 11 12  1  0
 12 13  2  0
 13 14  1  0
 10 15  1  0
 14 15  2  0
  9 16  2  0
  9 17  1  0
 14 18  1  0
 17 18  2  0
 18 19  1  0
 16 20  1  0
 19 20  2  0
  2 21  1  0
  7 22  1  0
  8 23  1  0
  8 24  1  0
  8 25  1  0
 11 26  1  0
 12 27  1  0
 13 28  1  0
 15 29  1  0
 16 30  1  0
 17 31  1  0
 19 32  1  0
 20 33  1  0
 34 35  2  0
 34 36  1  0
 36 37  2  0
 37 38  1  0
 38 39  2  0
 39 40  1  0
 40 41  2  0
 41 36  1  0
 37 42  1  0
 38 43  1  0
 39 44  1  0
 40 45  1  0
 41 46  1  0
  4 34  1  6
M  END
>  <attachment_point>  (62) 
21

>  <score>  (62) 
<NA>

$$$$
4djw
     RDKit          3D

 52 55  0  0  0  0  0  0  0  0999 V2000
   22.4950   11.8750   22.5810 C   0  0  0  0  0  0  0  0  0  0  0  0
   22.5380    9.4930   22.4640 N   0  0  0  0  0  0  0  0  0  0  0  0
   22.3600   13.0630   22.3480 O   0  0  0  0  0  0  0  0  0  0  0  0
   22.3390   10.6680   21.5610 C   0  0  2  0  0  0  0  0  0  0  0  0
   22.7860   11.3350   23.8120 N   0  0  0  0  0  0  0  0  0  0  0  0
   22.7800    9.9140   23.7010 C   0  0  0  0  0  0  0  0  0  0  0  0
   22.9970    9.1110   24.7490 N   0  0  0  0  0  0  0  0  0  0  0  0
   23.0220   12.1410   25.0180 C   0  0  0  0  0  0  0  0  0  0  0  0
   29.1260    9.8230   21.7090 N   0  0  0  0  0  0  0  0  0  0  0  0
   23.4880   10.6920   20.5300 C   0  0  0  0  0  0  0  0  0  0  0  0
   23.2110   10.7890   19.1730 C   0  0  0  0  0  0  0  0  0  0  0  0
   24.2350   10.8650   18.2430 C   0  0  0  0  0  0  0  0  0  0  0  0
   25.5500   10.8410   18.6560 C   0  0  0  0  0  0  0  0  0  0  0  0
   25.8710   10.7460   20.0070 C   0  0  0  0  0  0  0  0  0  0  0  0
   24.8260   10.6610   20.9430 C   0  0  0  0  0  0  0  0  0  0  0  0
   29.8540   10.9130   21.4510 C   0  0  0  0  0  0  0  0  0  0  0  0
   27.8830    9.7800   21.2080 C   0  0  0  0  0  0  0  0  0  0  0  0
   27.3000   10.8010   20.4650 C   0  0  0  0  0  0  0  0  0  0  0  0
   28.0930   11.9190   20.2200 C   0  0  0  0  0  0  0  0  0  0  0  0
   29.3850   11.9780   20.7130 C   0  0  0  0  0  0  0  0  0  0  0  0
    0.0000    0.0000    0.0000 H   0  0  0  0  0  0  0  0  0  0  0  0
    0.0000    0.0000    0.0000 H   0  0  0  0  0  0  0  0  0  0  0  0
    0.0000    0.0000    0.0000 H   0  0  0  0  0  0  0  0  0  0  0  0
    0.0000    0.0000    0.0000 H   0  0  0  0  0  0  0  0  0  0  0  0
    0.0000    0.0000    0.0000 H   0  0  0  0  0  0  0  0  0  0  0  0
    0.0000    0.0000    0.0000 H   0  0  0  0  0  0  0  0  0  0  0  0
    0.0000    0.0000    0.0000 H   0  0  0  0  0  0  0  0  0  0  0  0
    0.0000    0.0000    0.0000 H   0  0  0  0  0  0  0  0  0  0  0  0
    0.0000    0.0000    0.0000 H   0  0  0  0  0  0  0  0  0  0  0  0
    0.0000    0.0000    0.0000 H   0  0  0  0  0  0  0  0  0  0  0  0
    0.0000    0.0000    0.0000 H   0  0  0  0  0  0  0  0  0  0  0  0
    0.0000    0.0000    0.0000 H   0  0  0  0  0  0  0  0  0  0  0  0
    0.0000    0.0000    0.0000 H   0  0  0  0  0  0  0  0  0  0  0  0
   10.8833    5.1973   10.5043 C   0  0  0  0  0  0  0  0  0  0  0  0
   11.4743    4.3282    9.5665 N   0  0  0  0  0  0  0  0  0  0  0  0
   12.5086    4.7844    8.7581 C   0  0  0  0  0  0  0  0  0  0  0  0
   13.1904    3.5682    8.1128 C   0  0  0  0  0  0  0  0  0  0  0  0
   13.0966    2.4559    9.1451 C   0  0  0  0  0  0  0  0  0  0  0  0
   11.6618    1.9270    9.1156 C   0  0  0  0  0  0  0  0  0  0  0  0
   10.7708    3.1721    9.1928 C   0  0  0  0  0  0  0  0  0  0  0  0
   10.1317    4.6332   11.0979 H   0  0  0  0  0  0  0  0  0  0  0  0
   10.3648    6.0466   10.0333 H   0  0  0  0  0  0  0  0  0  0  0  0
   12.2038    5.4780    7.9436 H   0  0  0  0  0  0  0  0  0  0  0  0
   13.2966    5.2767    9.3635 H   0  0  0  0  0  0  0  0  0  0  0  0
   14.2336    3.7870    7.8481 H   0  0  0  0  0  0  0  0  0  0  0  0
   12.5713    3.3309    7.2113 H   0  0  0  0  0  0  0  0  0  0  0  0
   13.2121    2.9068   10.1693 H   0  0  0  0  0  0  0  0  0  0  0  0
   13.8289    1.6609    8.9660 H   0  0  0  0  0  0  0  0  0  0  0  0
   11.5301    1.3033   10.0349 H   0  0  0  0  0  0  0  0  0  0  0  0
   11.4805    1.3378    8.2169 H   0  0  0  0  0  0  0  0  0  0  0  0
   10.3887    3.3085    8.1391 H   0  0  0  0  0  0  0  0  0  0  0  0
    9.8993    3.0089    9.8400 H   0  0  0  0  0  0  0  0  0  0  0  0
  1  3  2  0
  1  4  1  0
  2  4  1  0
  1  5  1  0
  2  6  1  0
  5  6  1  0
  6  7  2  3
  5  8  1  0
  4 10  1  0
 10 11  2  0
 11 12  1  0
 12 13  2  0
 13 14  1  0
 10 15  1  0
 14 15  2  0
  9 16  2  0
  9 17  1  0
 14 18  1  0
 17 18  2  0
 18 19  1  0
 16 20  1  0
 19 20  2  0
  2 21  1  0
  7 22  1  0
  8 23  1  0
  8 24  1  0
  8 25  1  0
 11 26  1  0
 12 27  1  0
 13 28  1  0
 15 29  1  0
 16 30  1  0
 17 31  1  0
 19 32  1  0
 20 33  1  0
 34 35  1  0
 35 36  1  0
 36 37  1  0
 37 38  1  0
 38 39  1  0
 39 40  1  0
 40 35  1  0
 34 41  1  0
 34 42  1  0
 36 43  1  0
 36 44  1  0
 37 45  1  0
 37 46  1  0
 38 47  1  0
 38 48  1  0
 39 49  1  0
 39 50  1  0
 40 51  1  0
 40 52  1  0
  4 34  1  6
M  END
>  <attachment_point>  (63) 
21

>  <score>  (63) 
<NA>

$$$$
4djw
     RDKit          3D

 47 50  0  0  0  0  0  0  0  0999 V2000
   22.4950   11.8750   22.5810 C   0  0  0  0  0  0  0  0  0  0  0  0
   22.5380    9.4930   22.4640 N   0  0  0  0  0  0  0  0  0  0  0  0
   22.3600   13.0630   22.3480 O   0  0  0  0  0  0  0  0  0  0  0  0
   22.3390   10.6680   21.5610 C   0  0  2  0  0  0  0  0  0  0  0  0
   22.7860   11.3350   23.8120 N   0  0  0  0  0  0  0  0  0  0  0  0
   22.7800    9.9140   23.7010 C   0  0  0  0  0  0  0  0  0  0  0  0
   22.9970    9.1110   24.7490 N   0  0  0  0  0  0  0  0  0  0  0  0
   23.0220   12.1410   25.0180 C   0  0  0  0  0  0  0  0  0  0  0  0
   29.1260    9.8230   21.7090 N   0  0  0  0  0  0  0  0  0  0  0  0
   23.4880   10.6920   20.5300 C   0  0  0  0  0  0  0  0  0  0  0  0
   23.2110   10.7890   19.1730 C   0  0  0  0  0  0  0  0  0  0  0  0
   24.2350   10.8650   18.2430 C   0  0  0  0  0  0  0  0  0  0  0  0
   25.5500   10.8410   18.6560 C   0  0  0  0  0  0  0  0  0  0  0  0
   25.8710   10.7460   20.0070 C   0  0  0  0  0  0  0  0  0  0  0  0
   24.8260   10.6610   20.9430 C   0  0  0  0  0  0  0  0  0  0  0  0
   29.8540   10.9130   21.4510 C   0  0  0  0  0  0  0  0  0  0  0  0
   27.8830    9.7800   21.2080 C   0  0  0  0  0  0  0  0  0  0  0  0
   27.3000   10.8010   20.4650 C   0  0  0  0  0  0  0  0  0  0  0  0
   28.0930   11.9190   20.2200 C   0  0  0  0  0  0  0  0  0  0  0  0
   29.3850   11.9780   20.7130 C   0  0  0  0  0  0  0  0  0  0  0  0
    0.0000    0.0000    0.0000 H   0  0  0  0  0  0  0  0  0  0  0  0
    0.0000    0.0000    0.0000 H   0  0  0  0  0  0  0  0  0  0  0  0
    0.0000    0.0000    0.0000 H   0  0  0  0  0  0  0  0  0  0  0  0
    0.0000    0.0000    0.0000 H   0  0  0  0  0  0  0  0  0  0  0  0
    0.0000    0.0000    0.0000 H   0  0  0  0  0  0  0  0  0  0  0  0
    0.0000    0.0000    0.0000 H   0  0  0  0  0  0  0  0  0  0  0  0
    0.0000    0.0000    0.0000 H   0  0  0  0  0  0  0  0  0  0  0  0
    0.0000    0.0000    0.0000 H   0  0  0  0  0  0  0  0  0  0  0  0
    0.0000    0.0000    0.0000 H   0  0  0  0  0  0  0  0  0  0  0  0
    0.0000    0.0000    0.0000 H   0  0  0  0  0  0  0  0  0  0  0  0
    0.0000    0.0000    0.0000 H   0  0  0  0  0  0  0  0  0  0  0  0
    0.0000    0.0000    0.0000 H   0  0  0  0  0  0  0  0  0  0  0  0
    0.0000    0.0000    0.0000 H   0  0  0  0  0  0  0  0  0  0  0  0
   10.8764    5.1940   10.4976 C   0  0  0  0  0  0  0  0  0  0  0  0
   10.5990    6.1983    9.4049 C   0  0  0  0  0  0  0  0  0  0  0  0
   10.7783    5.4920    8.0914 C   0  0  0  0  0  0  0  0  0  0  0  0
   10.6742    4.0150    8.4821 C   0  0  0  0  0  0  0  0  0  0  0  0
   11.5501    4.0722    9.7420 C   0  0  0  0  0  0  0  0  0  0  0  0
    9.9406    4.8600   10.9993 H   0  0  0  0  0  0  0  0  0  0  0  0
    9.5681    6.5895    9.4893 H   0  0  0  0  0  0  0  0  0  0  0  0
   11.3529    7.0080    9.5143 H   0  0  0  0  0  0  0  0  0  0  0  0
   11.8499    5.6408    7.7888 H   0  0  0  0  0  0  0  0  0  0  0  0
   10.0659    5.7712    7.3203 H   0  0  0  0  0  0  0  0  0  0  0  0
   11.1574    3.3606    7.7275 H   0  0  0  0  0  0  0  0  0  0  0  0
    9.6393    3.7423    8.7163 H   0  0  0  0  0  0  0  0  0  0  0  0
   12.5298    4.4544    9.3998 H   0  0  0  0  0  0  0  0  0  0  0  0
   11.5792    3.1267   10.2735 H   0  0  0  0  0  0  0  0  0  0  0  0
  1  3  2  0
  1  4  1  0
  2  4  1  0
  1  5  1  0
  2  6  1  0
  5  6  1  0
  6  7  2  3
  5  8  1  0
  4 10  1  0
 10 11  2  0
 11 12  1  0
 12 13  2  0
 13 14  1  0
 10 15  1  0
 14 15  2  0
  9 16  2  0
  9 17  1  0
 14 18  1  0
 17 18  2  0
 18 19  1  0
 16 20  1  0
 19 20  2  0
  2 21  1  0
  7 22  1  0
  8 23  1  0
  8 24  1  0
  8 25  1  0
 11 26  1  0
 12 27  1  0
 13 28  1  0
 15 29  1  0
 16 30  1  0
 17 31  1  0
 19 32  1  0
 20 33  1  0
 34 35  1  0
 35 36  1  0
 36 37  1  0
 37 38  1  0
 38 34  1  0
 34 39  1  0
 35 40  1  0
 35 41  1  0
 36 42  1  0
 36 43  1  0
 37 44  1  0
 37 45  1  0
 38 46  1  0
 38 47  1  0
  4 34  1  6
M  END
>  <attachment_point>  (64) 
21

>  <score>  (64) 
<NA>

$$$$
4djw
     RDKit          3D

 44 47  0  0  0  0  0  0  0  0999 V2000
   22.4950   11.8750   22.5810 C   0  0  0  0  0  0  0  0  0  0  0  0
   22.5380    9.4930   22.4640 N   0  0  0  0  0  0  0  0  0  0  0  0
   22.3600   13.0630   22.3480 O   0  0  0  0  0  0  0  0  0  0  0  0
   22.3390   10.6680   21.5610 C   0  0  2  0  0  0  0  0  0  0  0  0
   22.7860   11.3350   23.8120 N   0  0  0  0  0  0  0  0  0  0  0  0
   22.7800    9.9140   23.7010 C   0  0  0  0  0  0  0  0  0  0  0  0
   22.9970    9.1110   24.7490 N   0  0  0  0  0  0  0  0  0  0  0  0
   23.0220   12.1410   25.0180 C   0  0  0  0  0  0  0  0  0  0  0  0
   29.1260    9.8230   21.7090 N   0  0  0  0  0  0  0  0  0  0  0  0
   23.4880   10.6920   20.5300 C   0  0  0  0  0  0  0  0  0  0  0  0
   23.2110   10.7890   19.1730 C   0  0  0  0  0  0  0  0  0  0  0  0
   24.2350   10.8650   18.2430 C   0  0  0  0  0  0  0  0  0  0  0  0
   25.5500   10.8410   18.6560 C   0  0  0  0  0  0  0  0  0  0  0  0
   25.8710   10.7460   20.0070 C   0  0  0  0  0  0  0  0  0  0  0  0
   24.8260   10.6610   20.9430 C   0  0  0  0  0  0  0  0  0  0  0  0
   29.8540   10.9130   21.4510 C   0  0  0  0  0  0  0  0  0  0  0  0
   27.8830    9.7800   21.2080 C   0  0  0  0  0  0  0  0  0  0  0  0
   27.3000   10.8010   20.4650 C   0  0  0  0  0  0  0  0  0  0  0  0
   28.0930   11.9190   20.2200 C   0  0  0  0  0  0  0  0  0  0  0  0
   29.3850   11.9780   20.7130 C   0  0  0  0  0  0  0  0  0  0  0  0
    0.0000    0.0000    0.0000 H   0  0  0  0  0  0  0  0  0  0  0  0
    0.0000    0.0000    0.0000 H   0  0  0  0  0  0  0  0  0  0  0  0
    0.0000    0.0000    0.0000 H   0  0  0  0  0  0  0  0  0  0  0  0
    0.0000    0.0000    0.0000 H   0  0  0  0  0  0  0  0  0  0  0  0
    0.0000    0.0000    0.0000 H   0  0  0  0  0  0  0  0  0  0  0  0
    0.0000    0.0000    0.0000 H   0  0  0  0  0  0  0  0  0  0  0  0
    0.0000    0.0000    0.0000 H   0  0  0  0  0  0  0  0  0  0  0  0
    0.0000    0.0000    0.0000 H   0  0  0  0  0  0  0  0  0  0  0  0
    0.0000    0.0000    0.0000 H   0  0  0  0  0  0  0  0  0  0  0  0
    0.0000    0.0000    0.0000 H   0  0  0  0  0  0  0  0  0  0  0  0
    0.0000    0.0000    0.0000 H   0  0  0  0  0  0  0  0  0  0  0  0
    0.0000    0.0000    0.0000 H   0  0  0  0  0  0  0  0  0  0  0  0
    0.0000    0.0000    0.0000 H   0  0  0  0  0  0  0  0  0  0  0  0
   10.8249    5.1694   10.4479 C   0  0  0  0  0  0  0  0  0  0  0  0
    9.6667    5.8450   10.3785 C   0  0  0  0  0  0  0  0  0  0  0  0
    8.7347    5.3591    9.4442 C   0  0  0  0  0  0  0  0  0  0  0  0
    9.0259    4.2600    8.6686 C   0  0  0  0  0  0  0  0  0  0  0  0
   10.2472    3.6173    8.8013 C   0  0  0  0  0  0  0  0  0  0  0  0
   11.1805    4.0921    9.7268 C   0  0  0  0  0  0  0  0  0  0  0  0
   12.7020    3.2838    9.8857 Cl  0  0  0  0  0  0  0  0  0  0  0  0
    9.4578    6.6985   10.9903 H   0  0  0  0  0  0  0  0  0  0  0  0
    7.7948    5.8762    9.3612 H   0  0  0  0  0  0  0  0  0  0  0  0
    8.2741    3.9263    7.9647 H   0  0  0  0  0  0  0  0  0  0  0  0
   10.4179    2.7643    8.1687 H   0  0  0  0  0  0  0  0  0  0  0  0
  1  3  2  0
  1  4  1  0
  2  4  1  0
  1  5  1  0
  2  6  1  0
  5  6  1  0
  6  7  2  3
  5  8  1  0
  4 10  1  6
 10 11  2  0
 11 12  1  0
 12 13  2  0
 13 14  1  0
 10 15  1  0
 14 15  2  0
  9 16  2  0
  9 17  1  0
 14 18  1  0
 17 18  2  0
 18 19  1  0
 16 20  1  0
 19 20  2  0
  2 21  1  0
  7 22  1  0
  8 23  1  0
  8 24  1  0
  8 25  1  0
 11 26  1  0
 12 27  1  0
 13 28  1  0
 15 29  1  0
 16 30  1  0
 17 31  1  0
 19 32  1  0
 20 33  1  0
 34 35  2  0
 35 36  1  0
 36 37  2  0
 37 38  1  0
 38 39  2  0
 39 40  1  0
 39 34  1  0
 35 41  1  0
 36 42  1  0
 37 43  1  0
 38 44  1  0
  4 34  1  0
M  END
>  <attachment_point>  (65) 
21

>  <score>  (65) 
<NA>

$$$$
4djw
     RDKit          3D

 39 41  0  0  0  0  0  0  0  0999 V2000
   22.4950   11.8750   22.5810 C   0  0  0  0  0  0  0  0  0  0  0  0
   22.5380    9.4930   22.4640 N   0  0  0  0  0  0  0  0  0  0  0  0
   22.3600   13.0630   22.3480 O   0  0  0  0  0  0  0  0  0  0  0  0
   22.3390   10.6680   21.5610 C   0  0  2  0  0  0  0  0  0  0  0  0
   22.7860   11.3350   23.8120 N   0  0  0  0  0  0  0  0  0  0  0  0
   22.7800    9.9140   23.7010 C   0  0  0  0  0  0  0  0  0  0  0  0
   22.9970    9.1110   24.7490 N   0  0  0  0  0  0  0  0  0  0  0  0
   23.0220   12.1410   25.0180 C   0  0  0  0  0  0  0  0  0  0  0  0
   29.1260    9.8230   21.7090 N   0  0  0  0  0  0  0  0  0  0  0  0
   23.4880   10.6920   20.5300 C   0  0  0  0  0  0  0  0  0  0  0  0
   23.2110   10.7890   19.1730 C   0  0  0  0  0  0  0  0  0  0  0  0
   24.2350   10.8650   18.2430 C   0  0  0  0  0  0  0  0  0  0  0  0
   25.5500   10.8410   18.6560 C   0  0  0  0  0  0  0  0  0  0  0  0
   25.8710   10.7460   20.0070 C   0  0  0  0  0  0  0  0  0  0  0  0
   24.8260   10.6610   20.9430 C   0  0  0  0  0  0  0  0  0  0  0  0
   29.8540   10.9130   21.4510 C   0  0  0  0  0  0  0  0  0  0  0  0
   27.8830    9.7800   21.2080 C   0  0  0  0  0  0  0  0  0  0  0  0
   27.3000   10.8010   20.4650 C   0  0  0  0  0  0  0  0  0  0  0  0
   28.0930   11.9190   20.2200 C   0  0  0  0  0  0  0  0  0  0  0  0
   29.3850   11.9780   20.7130 C   0  0  0  0  0  0  0  0  0  0  0  0
    0.0000    0.0000    0.0000 H   0  0  0  0  0  0  0  0  0  0  0  0
    0.0000    0.0000    0.0000 H   0  0  0  0  0  0  0  0  0  0  0  0
    0.0000    0.0000    0.0000 H   0  0  0  0  0  0  0  0  0  0  0  0
    0.0000    0.0000    0.0000 H   0  0  0  0  0  0  0  0  0  0  0  0
    0.0000    0.0000    0.0000 H   0  0  0  0  0  0  0  0  0  0  0  0
    0.0000    0.0000    0.0000 H   0  0  0  0  0  0  0  0  0  0  0  0
    0.0000    0.0000    0.0000 H   0  0  0  0  0  0  0  0  0  0  0  0
    0.0000    0.0000    0.0000 H   0  0  0  0  0  0  0  0  0  0  0  0
    0.0000    0.0000    0.0000 H   0  0  0  0  0  0  0  0  0  0  0  0
    0.0000    0.0000    0.0000 H   0  0  0  0  0  0  0  0  0  0  0  0
    0.0000    0.0000    0.0000 H   0  0  0  0  0  0  0  0  0  0  0  0
    0.0000    0.0000    0.0000 H   0  0  0  0  0  0  0  0  0  0  0  0
    0.0000    0.0000    0.0000 H   0  0  0  0  0  0  0  0  0  0  0  0
   10.8828    5.1971   10.5038 C   0  0  0  0  0  0  0  0  0  0  0  0
   10.0506    5.9703    9.9704 O   0  0  0  0  0  0  0  0  0  0  0  0
   10.8382    3.8187   10.1478 N   0  0  0  0  0  0  0  0  0  0  0  0
    9.9276    3.3289    9.2561 O   0  0  0  0  0  0  0  0  0  0  0  0
   11.5320    3.1556   10.5881 H   0  0  0  0  0  0  0  0  0  0  0  0
   10.4208    2.8310    8.5687 H   0  0  0  0  0  0  0  0  0  0  0  0
  1  3  2  0
  1  4  1  0
  2  4  1  0
  1  5  1  0
  2  6  1  0
  5  6  1  0
  6  7  2  3
  5  8  1  0
  4 10  1  0
 10 11  2  0
 11 12  1  0
 12 13  2  0
 13 14  1  0
 10 15  1  0
 14 15  2  0
  9 16  2  0
  9 17  1  0
 14 18  1  0
 17 18  2  0
 18 19  1  0
 16 20  1  0
 19 20  2  0
  2 21  1  0
  7 22  1  0
  8 23  1  0
  8 24  1  0
  8 25  1  0
 11 26  1  0
 12 27  1  0
 13 28  1  0
 15 29  1  0
 16 30  1  0
 17 31  1  0
 19 32  1  0
 20 33  1  0
 34 35  2  0
 34 36  1  0
 36 37  1  0
 36 38  1  0
 37 39  1  0
  4 34  1  6
M  END
>  <attachment_point>  (66) 
21

>  <score>  (66) 
<NA>

$$$$
4djw
     RDKit          3D

 41 43  0  0  0  0  0  0  0  0999 V2000
   22.4950   11.8750   22.5810 C   0  0  0  0  0  0  0  0  0  0  0  0
   22.5380    9.4930   22.4640 N   0  0  0  0  0  0  0  0  0  0  0  0
   22.3600   13.0630   22.3480 O   0  0  0  0  0  0  0  0  0  0  0  0
   22.3390   10.6680   21.5610 C   0  0  2  0  0  0  0  0  0  0  0  0
   22.7860   11.3350   23.8120 N   0  0  0  0  0  0  0  0  0  0  0  0
   22.7800    9.9140   23.7010 C   0  0  0  0  0  0  0  0  0  0  0  0
   22.9970    9.1110   24.7490 N   0  0  0  0  0  0  0  0  0  0  0  0
   23.0220   12.1410   25.0180 C   0  0  0  0  0  0  0  0  0  0  0  0
   29.1260    9.8230   21.7090 N   0  0  0  0  0  0  0  0  0  0  0  0
   23.4880   10.6920   20.5300 C   0  0  0  0  0  0  0  0  0  0  0  0
   23.2110   10.7890   19.1730 C   0  0  0  0  0  0  0  0  0  0  0  0
   24.2350   10.8650   18.2430 C   0  0  0  0  0  0  0  0  0  0  0  0
   25.5500   10.8410   18.6560 C   0  0  0  0  0  0  0  0  0  0  0  0
   25.8710   10.7460   20.0070 C   0  0  0  0  0  0  0  0  0  0  0  0
   24.8260   10.6610   20.9430 C   0  0  0  0  0  0  0  0  0  0  0  0
   29.8540   10.9130   21.4510 C   0  0  0  0  0  0  0  0  0  0  0  0
   27.8830    9.7800   21.2080 C   0  0  0  0  0  0  0  0  0  0  0  0
   27.3000   10.8010   20.4650 C   0  0  0  0  0  0  0  0  0  0  0  0
   28.0930   11.9190   20.2200 C   0  0  0  0  0  0  0  0  0  0  0  0
   29.3850   11.9780   20.7130 C   0  0  0  0  0  0  0  0  0  0  0  0
    0.0000    0.0000    0.0000 H   0  0  0  0  0  0  0  0  0  0  0  0
    0.0000    0.0000    0.0000 H   0  0  0  0  0  0  0  0  0  0  0  0
    0.0000    0.0000    0.0000 H   0  0  0  0  0  0  0  0  0  0  0  0
    0.0000    0.0000    0.0000 H   0  0  0  0  0  0  0  0  0  0  0  0
    0.0000    0.0000    0.0000 H   0  0  0  0  0  0  0  0  0  0  0  0
    0.0000    0.0000    0.0000 H   0  0  0  0  0  0  0  0  0  0  0  0
    0.0000    0.0000    0.0000 H   0  0  0  0  0  0  0  0  0  0  0  0
    0.0000    0.0000    0.0000 H   0  0  0  0  0  0  0  0  0  0  0  0
    0.0000    0.0000    0.0000 H   0  0  0  0  0  0  0  0  0  0  0  0
    0.0000    0.0000    0.0000 H   0  0  0  0  0  0  0  0  0  0  0  0
    0.0000    0.0000    0.0000 H   0  0  0  0  0  0  0  0  0  0  0  0
    0.0000    0.0000    0.0000 H   0  0  0  0  0  0  0  0  0  0  0  0
    0.0000    0.0000    0.0000 H   0  0  0  0  0  0  0  0  0  0  0  0
   10.8954    5.2031   10.5160 C   0  0  0  0  0  0  0  0  0  0  0  0
    9.6118    4.7461   11.1809 C   0  0  0  0  0  0  0  0  0  0  0  0
    8.9922    5.7337   11.8989 O   0  0  0  0  0  0  0  0  0  0  0  0
   11.3316    4.3594    9.9397 H   0  0  0  0  0  0  0  0  0  0  0  0
   10.7014    6.0017    9.7611 H   0  0  0  0  0  0  0  0  0  0  0  0
    9.8221    3.8231   11.7504 H   0  0  0  0  0  0  0  0  0  0  0  0
    8.9135    4.4558   10.3487 H   0  0  0  0  0  0  0  0  0  0  0  0
    9.3288    5.8193   12.8397 H   0  0  0  0  0  0  0  0  0  0  0  0
  1  3  2  0
  1  4  1  0
  2  4  1  0
  1  5  1  0
  2  6  1  0
  5  6  1  0
  6  7  2  3
  5  8  1  0
  4 10  1  0
 10 11  2  0
 11 12  1  0
 12 13  2  0
 13 14  1  0
 10 15  1  0
 14 15  2  0
  9 16  2  0
  9 17  1  0
 14 18  1  0
 17 18  2  0
 18 19  1  0
 16 20  1  0
 19 20  2  0
  2 21  1  0
  7 22  1  0
  8 23  1  0
  8 24  1  0
  8 25  1  0
 11 26  1  0
 12 27  1  0
 13 28  1  0
 15 29  1  0
 16 30  1  0
 17 31  1  0
 19 32  1  0
 20 33  1  0
 34 35  1  0
 35 36  1  0
 34 37  1  0
 34 38  1  0
 35 39  1  0
 35 40  1  0
 36 41  1  0
  4 34  1  6
M  END
>  <attachment_point>  (67) 
21

>  <score>  (67) 
<NA>

$$$$
4djw
     RDKit          3D

 42 45  0  0  0  0  0  0  0  0999 V2000
   22.4950   11.8750   22.5810 C   0  0  0  0  0  0  0  0  0  0  0  0
   22.5380    9.4930   22.4640 N   0  0  0  0  0  0  0  0  0  0  0  0
   22.3600   13.0630   22.3480 O   0  0  0  0  0  0  0  0  0  0  0  0
   22.3390   10.6680   21.5610 C   0  0  2  0  0  0  0  0  0  0  0  0
   22.7860   11.3350   23.8120 N   0  0  0  0  0  0  0  0  0  0  0  0
   22.7800    9.9140   23.7010 C   0  0  0  0  0  0  0  0  0  0  0  0
   22.9970    9.1110   24.7490 N   0  0  0  0  0  0  0  0  0  0  0  0
   23.0220   12.1410   25.0180 C   0  0  0  0  0  0  0  0  0  0  0  0
   29.1260    9.8230   21.7090 N   0  0  0  0  0  0  0  0  0  0  0  0
   23.4880   10.6920   20.5300 C   0  0  0  0  0  0  0  0  0  0  0  0
   23.2110   10.7890   19.1730 C   0  0  0  0  0  0  0  0  0  0  0  0
   24.2350   10.8650   18.2430 C   0  0  0  0  0  0  0  0  0  0  0  0
   25.5500   10.8410   18.6560 C   0  0  0  0  0  0  0  0  0  0  0  0
   25.8710   10.7460   20.0070 C   0  0  0  0  0  0  0  0  0  0  0  0
   24.8260   10.6610   20.9430 C   0  0  0  0  0  0  0  0  0  0  0  0
   29.8540   10.9130   21.4510 C   0  0  0  0  0  0  0  0  0  0  0  0
   27.8830    9.7800   21.2080 C   0  0  0  0  0  0  0  0  0  0  0  0
   27.3000   10.8010   20.4650 C   0  0  0  0  0  0  0  0  0  0  0  0
   28.0930   11.9190   20.2200 C   0  0  0  0  0  0  0  0  0  0  0  0
   29.3850   11.9780   20.7130 C   0  0  0  0  0  0  0  0  0  0  0  0
    0.0000    0.0000    0.0000 H   0  0  0  0  0  0  0  0  0  0  0  0
    0.0000    0.0000    0.0000 H   0  0  0  0  0  0  0  0  0  0  0  0
    0.0000    0.0000    0.0000 H   0  0  0  0  0  0  0  0  0  0  0  0
    0.0000    0.0000    0.0000 H   0  0  0  0  0  0  0  0  0  0  0  0
    0.0000    0.0000    0.0000 H   0  0  0  0  0  0  0  0  0  0  0  0
    0.0000    0.0000    0.0000 H   0  0  0  0  0  0  0  0  0  0  0  0
    0.0000    0.0000    0.0000 H   0  0  0  0  0  0  0  0  0  0  0  0
    0.0000    0.0000    0.0000 H   0  0  0  0  0  0  0  0  0  0  0  0
    0.0000    0.0000    0.0000 H   0  0  0  0  0  0  0  0  0  0  0  0
    0.0000    0.0000    0.0000 H   0  0  0  0  0  0  0  0  0  0  0  0
    0.0000    0.0000    0.0000 H   0  0  0  0  0  0  0  0  0  0  0  0
    0.0000    0.0000    0.0000 H   0  0  0  0  0  0  0  0  0  0  0  0
    0.0000    0.0000    0.0000 H   0  0  0  0  0  0  0  0  0  0  0  0
   10.7965    5.1559   10.4205 C   0  0  0  0  0  0  0  0  0  0  0  0
    9.6001    4.9045   10.9211 C   0  0  0  0  0  0  0  0  0  0  0  0
    8.6863    4.4598    9.9965 N   0  0  0  0  0  0  0  0  0  0  0  0
    9.0287    4.3128    8.7200 C   0  0  0  0  0  0  0  0  0  0  0  0
   10.2621    4.5850    8.2718 N   0  0  0  0  0  0  0  0  0  0  0  0
   11.2203    5.0376    9.1706 C   0  0  0  0  0  0  0  0  0  0  0  0
    9.3703    5.0380   11.9582 H   0  0  0  0  0  0  0  0  0  0  0  0
    8.3006    3.9621    8.0027 H   0  0  0  0  0  0  0  0  0  0  0  0
   12.2293    5.2638    8.8215 H   0  0  0  0  0  0  0  0  0  0  0  0
  1  3  2  0
  1  4  1  0
  2  4  1  0
  1  5  1  0
  2  6  1  0
  5  6  1  0
  6  7  2  3
  5  8  1  0
  4 10  1  6
 10 11  2  0
 11 12  1  0
 12 13  2  0
 13 14  1  0
 10 15  1  0
 14 15  2  0
  9 16  2  0
  9 17  1  0
 14 18  1  0
 17 18  2  0
 18 19  1  0
 16 20  1  0
 19 20  2  0
  2 21  1  0
  7 22  1  0
  8 23  1  0
  8 24  1  0
  8 25  1  0
 11 26  1  0
 12 27  1  0
 13 28  1  0
 15 29  1  0
 16 30  1  0
 17 31  1  0
 19 32  1  0
 20 33  1  0
 34 35  2  0
 35 36  1  0
 36 37  2  0
 37 38  1  0
 38 39  2  0
 39 34  1  0
 35 40  1  0
 37 41  1  0
 39 42  1  0
  4 34  1  0
M  END
>  <attachment_point>  (68) 
21

>  <score>  (68) 
<NA>

$$$$
4djw
     RDKit          3D

 41 44  0  0  0  0  0  0  0  0999 V2000
   22.4950   11.8750   22.5810 C   0  0  0  0  0  0  0  0  0  0  0  0
   22.5380    9.4930   22.4640 N   0  0  0  0  0  0  0  0  0  0  0  0
   22.3600   13.0630   22.3480 O   0  0  0  0  0  0  0  0  0  0  0  0
   22.3390   10.6680   21.5610 C   0  0  2  0  0  0  0  0  0  0  0  0
   22.7860   11.3350   23.8120 N   0  0  0  0  0  0  0  0  0  0  0  0
   22.7800    9.9140   23.7010 C   0  0  0  0  0  0  0  0  0  0  0  0
   22.9970    9.1110   24.7490 N   0  0  0  0  0  0  0  0  0  0  0  0
   23.0220   12.1410   25.0180 C   0  0  0  0  0  0  0  0  0  0  0  0
   29.1260    9.8230   21.7090 N   0  0  0  0  0  0  0  0  0  0  0  0
   23.4880   10.6920   20.5300 C   0  0  0  0  0  0  0  0  0  0  0  0
   23.2110   10.7890   19.1730 C   0  0  0  0  0  0  0  0  0  0  0  0
   24.2350   10.8650   18.2430 C   0  0  0  0  0  0  0  0  0  0  0  0
   25.5500   10.8410   18.6560 C   0  0  0  0  0  0  0  0  0  0  0  0
   25.8710   10.7460   20.0070 C   0  0  0  0  0  0  0  0  0  0  0  0
   24.8260   10.6610   20.9430 C   0  0  0  0  0  0  0  0  0  0  0  0
   29.8540   10.9130   21.4510 C   0  0  0  0  0  0  0  0  0  0  0  0
   27.8830    9.7800   21.2080 C   0  0  0  0  0  0  0  0  0  0  0  0
   27.3000   10.8010   20.4650 C   0  0  0  0  0  0  0  0  0  0  0  0
   28.0930   11.9190   20.2200 C   0  0  0  0  0  0  0  0  0  0  0  0
   29.3850   11.9780   20.7130 C   0  0  0  0  0  0  0  0  0  0  0  0
    0.0000    0.0000    0.0000 H   0  0  0  0  0  0  0  0  0  0  0  0
    0.0000    0.0000    0.0000 H   0  0  0  0  0  0  0  0  0  0  0  0
    0.0000    0.0000    0.0000 H   0  0  0  0  0  0  0  0  0  0  0  0
    0.0000    0.0000    0.0000 H   0  0  0  0  0  0  0  0  0  0  0  0
    0.0000    0.0000    0.0000 H   0  0  0  0  0  0  0  0  0  0  0  0
    0.0000    0.0000    0.0000 H   0  0  0  0  0  0  0  0  0  0  0  0
    0.0000    0.0000    0.0000 H   0  0  0  0  0  0  0  0  0  0  0  0
    0.0000    0.0000    0.0000 H   0  0  0  0  0  0  0  0  0  0  0  0
    0.0000    0.0000    0.0000 H   0  0  0  0  0  0  0  0  0  0  0  0
    0.0000    0.0000    0.0000 H   0  0  0  0  0  0  0  0  0  0  0  0
    0.0000    0.0000    0.0000 H   0  0  0  0  0  0  0  0  0  0  0  0
    0.0000    0.0000    0.0000 H   0  0  0  0  0  0  0  0  0  0  0  0
    0.0000    0.0000    0.0000 H   0  0  0  0  0  0  0  0  0  0  0  0
   10.8622    5.1873   10.4839 C   0  0  0  0  0  0  0  0  0  0  0  0
    9.7564    5.8860   10.0898 C   0  0  0  0  0  0  0  0  0  0  0  0
    9.1119    5.0645    9.1860 C   0  0  0  0  0  0  0  0  0  0  0  0
    9.8604    3.9087    9.0781 C   0  0  0  0  0  0  0  0  0  0  0  0
   10.8850    4.0481    9.8749 O   0  0  0  0  0  0  0  0  0  0  0  0
    9.4602    6.8581   10.4149 H   0  0  0  0  0  0  0  0  0  0  0  0
    8.1865    5.3395    8.6862 H   0  0  0  0  0  0  0  0  0  0  0  0
    9.6382    3.0645    8.4587 H   0  0  0  0  0  0  0  0  0  0  0  0
  1  3  2  0
  1  4  1  0
  2  4  1  0
  1  5  1  0
  2  6  1  0
  5  6  1  0
  6  7  2  3
  5  8  1  0
  4 10  1  6
 10 11  2  0
 11 12  1  0
 12 13  2  0
 13 14  1  0
 10 15  1  0
 14 15  2  0
  9 16  2  0
  9 17  1  0
 14 18  1  0
 17 18  2  0
 18 19  1  0
 16 20  1  0
 19 20  2  0
  2 21  1  0
  7 22  1  0
  8 23  1  0
  8 24  1  0
  8 25  1  0
 11 26  1  0
 12 27  1  0
 13 28  1  0
 15 29  1  0
 16 30  1  0
 17 31  1  0
 19 32  1  0
 20 33  1  0
 34 35  2  0
 35 36  1  0
 36 37  2  0
 37 38  1  0
 38 34  1  0
 35 39  1  0
 36 40  1  0
 37 41  1  0
  4 34  1  0
M  END
>  <attachment_point>  (69) 
21

>  <score>  (69) 
<NA>

$$$$
4djw
     RDKit          3D

 42 44  0  0  0  0  0  0  0  0999 V2000
   22.4950   11.8750   22.5810 C   0  0  0  0  0  0  0  0  0  0  0  0
   22.5380    9.4930   22.4640 N   0  0  0  0  0  0  0  0  0  0  0  0
   22.3600   13.0630   22.3480 O   0  0  0  0  0  0  0  0  0  0  0  0
   22.3390   10.6680   21.5610 C   0  0  2  0  0  0  0  0  0  0  0  0
   22.7860   11.3350   23.8120 N   0  0  0  0  0  0  0  0  0  0  0  0
   22.7800    9.9140   23.7010 C   0  0  0  0  0  0  0  0  0  0  0  0
   22.9970    9.1110   24.7490 N   0  0  0  0  0  0  0  0  0  0  0  0
   23.0220   12.1410   25.0180 C   0  0  0  0  0  0  0  0  0  0  0  0
   29.1260    9.8230   21.7090 N   0  0  0  0  0  0  0  0  0  0  0  0
   23.4880   10.6920   20.5300 C   0  0  0  0  0  0  0  0  0  0  0  0
   23.2110   10.7890   19.1730 C   0  0  0  0  0  0  0  0  0  0  0  0
   24.2350   10.8650   18.2430 C   0  0  0  0  0  0  0  0  0  0  0  0
   25.5500   10.8410   18.6560 C   0  0  0  0  0  0  0  0  0  0  0  0
   25.8710   10.7460   20.0070 C   0  0  0  0  0  0  0  0  0  0  0  0
   24.8260   10.6610   20.9430 C   0  0  0  0  0  0  0  0  0  0  0  0
   29.8540   10.9130   21.4510 C   0  0  0  0  0  0  0  0  0  0  0  0
   27.8830    9.7800   21.2080 C   0  0  0  0  0  0  0  0  0  0  0  0
   27.3000   10.8010   20.4650 C   0  0  0  0  0  0  0  0  0  0  0  0
   28.0930   11.9190   20.2200 C   0  0  0  0  0  0  0  0  0  0  0  0
   29.3850   11.9780   20.7130 C   0  0  0  0  0  0  0  0  0  0  0  0
    0.0000    0.0000    0.0000 H   0  0  0  0  0  0  0  0  0  0  0  0
    0.0000    0.0000    0.0000 H   0  0  0  0  0  0  0  0  0  0  0  0
    0.0000    0.0000    0.0000 H   0  0  0  0  0  0  0  0  0  0  0  0
    0.0000    0.0000    0.0000 H   0  0  0  0  0  0  0  0  0  0  0  0
    0.0000    0.0000    0.0000 H   0  0  0  0  0  0  0  0  0  0  0  0
    0.0000    0.0000    0.0000 H   0  0  0  0  0  0  0  0  0  0  0  0
    0.0000    0.0000    0.0000 H   0  0  0  0  0  0  0  0  0  0  0  0
    0.0000    0.0000    0.0000 H   0  0  0  0  0  0  0  0  0  0  0  0
    0.0000    0.0000    0.0000 H   0  0  0  0  0  0  0  0  0  0  0  0
    0.0000    0.0000    0.0000 H   0  0  0  0  0  0  0  0  0  0  0  0
    0.0000    0.0000    0.0000 H   0  0  0  0  0  0  0  0  0  0  0  0
    0.0000    0.0000    0.0000 H   0  0  0  0  0  0  0  0  0  0  0  0
    0.0000    0.0000    0.0000 H   0  0  0  0  0  0  0  0  0  0  0  0
   10.8706    5.1913   10.4920 C   0  0  0  0  0  0  0  0  0  0  0  0
    9.4716    5.4731   10.9763 C   0  0  0  0  0  0  0  0  0  0  0  0
    9.3294    6.9041   11.1436 N   0  0  0  0  0  0  0  0  0  0  0  0
   11.0249    4.1018   10.3061 H   0  0  0  0  0  0  0  0  0  0  0  0
   11.0550    5.8050    9.5873 H   0  0  0  0  0  0  0  0  0  0  0  0
    8.7849    5.1820   10.1541 H   0  0  0  0  0  0  0  0  0  0  0  0
    9.1937    4.8971   11.8613 H   0  0  0  0  0  0  0  0  0  0  0  0
   10.0197    7.3176   11.7869 H   0  0  0  0  0  0  0  0  0  0  0  0
    9.4997    7.3320   10.2050 H   0  0  0  0  0  0  0  0  0  0  0  0
  1  3  2  0
  1  4  1  0
  2  4  1  0
  1  5  1  0
  2  6  1  0
  5  6  1  0
  6  7  2  3
  5  8  1  0
  4 10  1  0
 10 11  2  0
 11 12  1  0
 12 13  2  0
 13 14  1  0
 10 15  1  0
 14 15  2  0
  9 16  2  0
  9 17  1  0
 14 18  1  0
 17 18  2  0
 18 19  1  0
 16 20  1  0
 19 20  2  0
  2 21  1  0
  7 22  1  0
  8 23  1  0
  8 24  1  0
  8 25  1  0
 11 26  1  0
 12 27  1  0
 13 28  1  0
 15 29  1  0
 16 30  1  0
 17 31  1  0
 19 32  1  0
 20 33  1  0
 34 35  1  0
 35 36  1  0
 34 37  1  0
 34 38  1  0
 35 39  1  0
 35 40  1  0
 36 41  1  0
 36 42  1  0
  4 34  1  6
M  END
>  <attachment_point>  (70) 
21

>  <score>  (70) 
<NA>

$$$$
4djw
     RDKit          3D

 45 48  0  0  0  0  0  0  0  0999 V2000
   22.4950   11.8750   22.5810 C   0  0  0  0  0  0  0  0  0  0  0  0
   22.5380    9.4930   22.4640 N   0  0  0  0  0  0  0  0  0  0  0  0
   22.3600   13.0630   22.3480 O   0  0  0  0  0  0  0  0  0  0  0  0
   22.3390   10.6680   21.5610 C   0  0  2  0  0  0  0  0  0  0  0  0
   22.7860   11.3350   23.8120 N   0  0  0  0  0  0  0  0  0  0  0  0
   22.7800    9.9140   23.7010 C   0  0  0  0  0  0  0  0  0  0  0  0
   22.9970    9.1110   24.7490 N   0  0  0  0  0  0  0  0  0  0  0  0
   23.0220   12.1410   25.0180 C   0  0  0  0  0  0  0  0  0  0  0  0
   29.1260    9.8230   21.7090 N   0  0  0  0  0  0  0  0  0  0  0  0
   23.4880   10.6920   20.5300 C   0  0  0  0  0  0  0  0  0  0  0  0
   23.2110   10.7890   19.1730 C   0  0  0  0  0  0  0  0  0  0  0  0
   24.2350   10.8650   18.2430 C   0  0  0  0  0  0  0  0  0  0  0  0
   25.5500   10.8410   18.6560 C   0  0  0  0  0  0  0  0  0  0  0  0
   25.8710   10.7460   20.0070 C   0  0  0  0  0  0  0  0  0  0  0  0
   24.8260   10.6610   20.9430 C   0  0  0  0  0  0  0  0  0  0  0  0
   29.8540   10.9130   21.4510 C   0  0  0  0  0  0  0  0  0  0  0  0
   27.8830    9.7800   21.2080 C   0  0  0  0  0  0  0  0  0  0  0  0
   27.3000   10.8010   20.4650 C   0  0  0  0  0  0  0  0  0  0  0  0
   28.0930   11.9190   20.2200 C   0  0  0  0  0  0  0  0  0  0  0  0
   29.3850   11.9780   20.7130 C   0  0  0  0  0  0  0  0  0  0  0  0
    0.0000    0.0000    0.0000 H   0  0  0  0  0  0  0  0  0  0  0  0
    0.0000    0.0000    0.0000 H   0  0  0  0  0  0  0  0  0  0  0  0
    0.0000    0.0000    0.0000 H   0  0  0  0  0  0  0  0  0  0  0  0
    0.0000    0.0000    0.0000 H   0  0  0  0  0  0  0  0  0  0  0  0
    0.0000    0.0000    0.0000 H   0  0  0  0  0  0  0  0  0  0  0  0
    0.0000    0.0000    0.0000 H   0  0  0  0  0  0  0  0  0  0  0  0
    0.0000    0.0000    0.0000 H   0  0  0  0  0  0  0  0  0  0  0  0
    0.0000    0.0000    0.0000 H   0  0  0  0  0  0  0  0  0  0  0  0
    0.0000    0.0000    0.0000 H   0  0  0  0  0  0  0  0  0  0  0  0
    0.0000    0.0000    0.0000 H   0  0  0  0  0  0  0  0  0  0  0  0
    0.0000    0.0000    0.0000 H   0  0  0  0  0  0  0  0  0  0  0  0
    0.0000    0.0000    0.0000 H   0  0  0  0  0  0  0  0  0  0  0  0
    0.0000    0.0000    0.0000 H   0  0  0  0  0  0  0  0  0  0  0  0
   10.8219    5.1680   10.4450 C   0  0  0  0  0  0  0  0  0  0  0  0
   11.2776    4.6665    9.2879 C   0  0  0  0  0  0  0  0  0  0  0  0
   10.3487    4.1965    8.3329 C   0  0  0  0  0  0  0  0  0  0  0  0
    9.0083    4.2704    8.6245 C   0  0  0  0  0  0  0  0  0  0  0  0
    8.0438    3.7904    7.6502 C   0  0  0  0  0  0  0  0  0  0  0  0
    7.2707    3.4280    6.8749 N   0  0  0  0  0  0  0  0  0  0  0  0
    8.6011    4.7950    9.8280 C   0  0  0  0  0  0  0  0  0  0  0  0
    9.5322    5.2640   10.7809 C   0  0  0  0  0  0  0  0  0  0  0  0
   12.3282    4.6158    9.0757 H   0  0  0  0  0  0  0  0  0  0  0  0
   10.6788    3.7931    7.4058 H   0  0  0  0  0  0  0  0  0  0  0  0
    7.5562    4.8487   10.0467 H   0  0  0  0  0  0  0  0  0  0  0  0
    9.2223    5.6694   11.7107 H   0  0  0  0  0  0  0  0  0  0  0  0
  1  3  2  0
  1  4  1  0
  2  4  1  0
  1  5  1  0
  2  6  1  0
  5  6  1  0
  6  7  2  3
  5  8  1  0
  4 10  1  6
 10 11  2  0
 11 12  1  0
 12 13  2  0
 13 14  1  0
 10 15  1  0
 14 15  2  0
  9 16  2  0
  9 17  1  0
 14 18  1  0
 17 18  2  0
 18 19  1  0
 16 20  1  0
 19 20  2  0
  2 21  1  0
  7 22  1  0
  8 23  1  0
  8 24  1  0
  8 25  1  0
 11 26  1  0
 12 27  1  0
 13 28  1  0
 15 29  1  0
 16 30  1  0
 17 31  1  0
 19 32  1  0
 20 33  1  0
 34 35  2  0
 35 36  1  0
 36 37  2  0
 37 38  1  0
 38 39  3  0
 37 40  1  0
 40 41  2  0
 41 34  1  0
 35 42  1  0
 36 43  1  0
 40 44  1  0
 41 45  1  0
  4 34  1  0
M  END
>  <attachment_point>  (71) 
21

>  <score>  (71) 
<NA>

$$$$
4djw
     RDKit          3D

 43 45  0  0  0  0  0  0  0  0999 V2000
   22.4950   11.8750   22.5810 C   0  0  0  0  0  0  0  0  0  0  0  0
   22.5380    9.4930   22.4640 N   0  0  0  0  0  0  0  0  0  0  0  0
   22.3600   13.0630   22.3480 O   0  0  0  0  0  0  0  0  0  0  0  0
   22.3390   10.6680   21.5610 C   0  0  2  0  0  0  0  0  0  0  0  0
   22.7860   11.3350   23.8120 N   0  0  0  0  0  0  0  0  0  0  0  0
   22.7800    9.9140   23.7010 C   0  0  0  0  0  0  0  0  0  0  0  0
   22.9970    9.1110   24.7490 N   0  0  0  0  0  0  0  0  0  0  0  0
   23.0220   12.1410   25.0180 C   0  0  0  0  0  0  0  0  0  0  0  0
   29.1260    9.8230   21.7090 N   0  0  0  0  0  0  0  0  0  0  0  0
   23.4880   10.6920   20.5300 C   0  0  0  0  0  0  0  0  0  0  0  0
   23.2110   10.7890   19.1730 C   0  0  0  0  0  0  0  0  0  0  0  0
   24.2350   10.8650   18.2430 C   0  0  0  0  0  0  0  0  0  0  0  0
   25.5500   10.8410   18.6560 C   0  0  0  0  0  0  0  0  0  0  0  0
   25.8710   10.7460   20.0070 C   0  0  0  0  0  0  0  0  0  0  0  0
   24.8260   10.6610   20.9430 C   0  0  0  0  0  0  0  0  0  0  0  0
   29.8540   10.9130   21.4510 C   0  0  0  0  0  0  0  0  0  0  0  0
   27.8830    9.7800   21.2080 C   0  0  0  0  0  0  0  0  0  0  0  0
   27.3000   10.8010   20.4650 C   0  0  0  0  0  0  0  0  0  0  0  0
   28.0930   11.9190   20.2200 C   0  0  0  0  0  0  0  0  0  0  0  0
   29.3850   11.9780   20.7130 C   0  0  0  0  0  0  0  0  0  0  0  0
    0.0000    0.0000    0.0000 H   0  0  0  0  0  0  0  0  0  0  0  0
    0.0000    0.0000    0.0000 H   0  0  0  0  0  0  0  0  0  0  0  0
    0.0000    0.0000    0.0000 H   0  0  0  0  0  0  0  0  0  0  0  0
    0.0000    0.0000    0.0000 H   0  0  0  0  0  0  0  0  0  0  0  0
    0.0000    0.0000    0.0000 H   0  0  0  0  0  0  0  0  0  0  0  0
    0.0000    0.0000    0.0000 H   0  0  0  0  0  0  0  0  0  0  0  0
    0.0000    0.0000    0.0000 H   0  0  0  0  0  0  0  0  0  0  0  0
    0.0000    0.0000    0.0000 H   0  0  0  0  0  0  0  0  0  0  0  0
    0.0000    0.0000    0.0000 H   0  0  0  0  0  0  0  0  0  0  0  0
    0.0000    0.0000    0.0000 H   0  0  0  0  0  0  0  0  0  0  0  0
    0.0000    0.0000    0.0000 H   0  0  0  0  0  0  0  0  0  0  0  0
    0.0000    0.0000    0.0000 H   0  0  0  0  0  0  0  0  0  0  0  0
    0.0000    0.0000    0.0000 H   0  0  0  0  0  0  0  0  0  0  0  0
   10.8611    5.1867   10.4828 C   0  0  0  0  0  0  0  0  0  0  0  0
   10.7224    6.2473    9.4222 C   0  0  0  0  0  0  0  0  0  0  0  0
   12.0245    6.4427    8.7626 C   0  0  0  0  0  0  0  0  0  0  0  0
   13.0146    6.7286    9.4916 O   0  0  0  0  0  0  0  0  0  0  0  0
   12.2377    6.3327    7.4137 O   0  0  0  0  0  0  0  0  0  0  0  0
   11.2231    4.2522   10.0817 H   0  0  0  0  0  0  0  0  0  0  0  0
    9.9475    5.0975   11.1082 H   0  0  0  0  0  0  0  0  0  0  0  0
    9.9501    5.9938    8.7014 H   0  0  0  0  0  0  0  0  0  0  0  0
   10.4440    7.2198    9.8915 H   0  0  0  0  0  0  0  0  0  0  0  0
   13.0821    5.9030    7.0176 H   0  0  0  0  0  0  0  0  0  0  0  0
  1  3  2  0
  1  4  1  0
  2  4  1  0
  1  5  1  0
  2  6  1  0
  5  6  1  0
  6  7  2  3
  5  8  1  0
  4 10  1  0
 10 11  2  0
 11 12  1  0
 12 13  2  0
 13 14  1  0
 10 15  1  0
 14 15  2  0
  9 16  2  0
  9 17  1  0
 14 18  1  0
 17 18  2  0
 18 19  1  0
 16 20  1  0
 19 20  2  0
  2 21  1  0
  7 22  1  0
  8 23  1  0
  8 24  1  0
  8 25  1  0
 11 26  1  0
 12 27  1  0
 13 28  1  0
 15 29  1  0
 16 30  1  0
 17 31  1  0
 19 32  1  0
 20 33  1  0
 34 35  1  0
 35 36  1  0
 36 37  2  0
 36 38  1  0
 34 39  1  0
 34 40  1  0
 35 41  1  0
 35 42  1  0
 38 43  1  0
  4 34  1  6
M  END
>  <attachment_point>  (72) 
21

>  <score>  (72) 
<NA>

$$$$
4djw
     RDKit          3D

 47 50  0  0  0  0  0  0  0  0999 V2000
   22.4950   11.8750   22.5810 C   0  0  0  0  0  0  0  0  0  0  0  0
   22.5380    9.4930   22.4640 N   0  0  0  0  0  0  0  0  0  0  0  0
   22.3600   13.0630   22.3480 O   0  0  0  0  0  0  0  0  0  0  0  0
   22.3390   10.6680   21.5610 C   0  0  2  0  0  0  0  0  0  0  0  0
   22.7860   11.3350   23.8120 N   0  0  0  0  0  0  0  0  0  0  0  0
   22.7800    9.9140   23.7010 C   0  0  0  0  0  0  0  0  0  0  0  0
   22.9970    9.1110   24.7490 N   0  0  0  0  0  0  0  0  0  0  0  0
   23.0220   12.1410   25.0180 C   0  0  0  0  0  0  0  0  0  0  0  0
   29.1260    9.8230   21.7090 N   0  0  0  0  0  0  0  0  0  0  0  0
   23.4880   10.6920   20.5300 C   0  0  0  0  0  0  0  0  0  0  0  0
   23.2110   10.7890   19.1730 C   0  0  0  0  0  0  0  0  0  0  0  0
   24.2350   10.8650   18.2430 C   0  0  0  0  0  0  0  0  0  0  0  0
   25.5500   10.8410   18.6560 C   0  0  0  0  0  0  0  0  0  0  0  0
   25.8710   10.7460   20.0070 C   0  0  0  0  0  0  0  0  0  0  0  0
   24.8260   10.6610   20.9430 C   0  0  0  0  0  0  0  0  0  0  0  0
   29.8540   10.9130   21.4510 C   0  0  0  0  0  0  0  0  0  0  0  0
   27.8830    9.7800   21.2080 C   0  0  0  0  0  0  0  0  0  0  0  0
   27.3000   10.8010   20.4650 C   0  0  0  0  0  0  0  0  0  0  0  0
   28.0930   11.9190   20.2200 C   0  0  0  0  0  0  0  0  0  0  0  0
   29.3850   11.9780   20.7130 C   0  0  0  0  0  0  0  0  0  0  0  0
    0.0000    0.0000    0.0000 H   0  0  0  0  0  0  0  0  0  0  0  0
    0.0000    0.0000    0.0000 H   0  0  0  0  0  0  0  0  0  0  0  0
    0.0000    0.0000    0.0000 H   0  0  0  0  0  0  0  0  0  0  0  0
    0.0000    0.0000    0.0000 H   0  0  0  0  0  0  0  0  0  0  0  0
    0.0000    0.0000    0.0000 H   0  0  0  0  0  0  0  0  0  0  0  0
    0.0000    0.0000    0.0000 H   0  0  0  0  0  0  0  0  0  0  0  0
    0.0000    0.0000    0.0000 H   0  0  0  0  0  0  0  0  0  0  0  0
    0.0000    0.0000    0.0000 H   0  0  0  0  0  0  0  0  0  0  0  0
    0.0000    0.0000    0.0000 H   0  0  0  0  0  0  0  0  0  0  0  0
    0.0000    0.0000    0.0000 H   0  0  0  0  0  0  0  0  0  0  0  0
    0.0000    0.0000    0.0000 H   0  0  0  0  0  0  0  0  0  0  0  0
    0.0000    0.0000    0.0000 H   0  0  0  0  0  0  0  0  0  0  0  0
    0.0000    0.0000    0.0000 H   0  0  0  0  0  0  0  0  0  0  0  0
   10.8736    5.1927   10.4949 C   0  0  0  0  0  0  0  0  0  0  0  0
   11.0940    5.5001    9.1682 C   0  0  0  0  0  0  0  0  0  0  0  0
   10.1526    5.0500    8.2642 C   0  0  0  0  0  0  0  0  0  0  0  0
    9.0536    4.3304    8.6881 C   0  0  0  0  0  0  0  0  0  0  0  0
    8.8385    4.0259   10.0175 C   0  0  0  0  0  0  0  0  0  0  0  0
    7.6371    3.2432   10.4512 C   0  0  0  0  0  0  0  0  0  0  0  0
    9.7773    4.4742   10.9232 C   0  0  0  0  0  0  0  0  0  0  0  0
   11.9595    6.0653    8.8455 H   0  0  0  0  0  0  0  0  0  0  0  0
   10.2805    5.2668    7.2007 H   0  0  0  0  0  0  0  0  0  0  0  0
    8.3003    3.9666    7.9923 H   0  0  0  0  0  0  0  0  0  0  0  0
    7.8884    2.5712   11.2765 H   0  0  0  0  0  0  0  0  0  0  0  0
    6.8375    3.9604   10.7022 H   0  0  0  0  0  0  0  0  0  0  0  0
    7.3642    2.6019    9.5841 H   0  0  0  0  0  0  0  0  0  0  0  0
    9.6211    4.2413   11.9785 H   0  0  0  0  0  0  0  0  0  0  0  0
  1  3  2  0
  1  4  1  0
  2  4  1  0
  1  5  1  0
  2  6  1  0
  5  6  1  0
  6  7  2  3
  5  8  1  0
  4 10  1  6
 10 11  2  0
 11 12  1  0
 12 13  2  0
 13 14  1  0
 10 15  1  0
 14 15  2  0
  9 16  2  0
  9 17  1  0
 14 18  1  0
 17 18  2  0
 18 19  1  0
 16 20  1  0
 19 20  2  0
  2 21  1  0
  7 22  1  0
  8 23  1  0
  8 24  1  0
  8 25  1  0
 11 26  1  0
 12 27  1  0
 13 28  1  0
 15 29  1  0
 16 30  1  0
 17 31  1  0
 19 32  1  0
 20 33  1  0
 34 35  2  0
 35 36  1  0
 36 37  2  0
 37 38  1  0
 38 39  1  0
 38 40  2  0
 40 34  1  0
 35 41  1  0
 36 42  1  0
 37 43  1  0
 39 44  1  0
 39 45  1  0
 39 46  1  0
 40 47  1  0
  4 34  1  0
M  END
>  <attachment_point>  (73) 
21

>  <score>  (73) 
<NA>

$$$$
4djw
     RDKit          3D

 44 47  0  0  0  0  0  0  0  0999 V2000
   22.4950   11.8750   22.5810 C   0  0  0  0  0  0  0  0  0  0  0  0
   22.5380    9.4930   22.4640 N   0  0  0  0  0  0  0  0  0  0  0  0
   22.3600   13.0630   22.3480 O   0  0  0  0  0  0  0  0  0  0  0  0
   22.3390   10.6680   21.5610 C   0  0  2  0  0  0  0  0  0  0  0  0
   22.7860   11.3350   23.8120 N   0  0  0  0  0  0  0  0  0  0  0  0
   22.7800    9.9140   23.7010 C   0  0  0  0  0  0  0  0  0  0  0  0
   22.9970    9.1110   24.7490 N   0  0  0  0  0  0  0  0  0  0  0  0
   23.0220   12.1410   25.0180 C   0  0  0  0  0  0  0  0  0  0  0  0
   29.1260    9.8230   21.7090 N   0  0  0  0  0  0  0  0  0  0  0  0
   23.4880   10.6920   20.5300 C   0  0  0  0  0  0  0  0  0  0  0  0
   23.2110   10.7890   19.1730 C   0  0  0  0  0  0  0  0  0  0  0  0
   24.2350   10.8650   18.2430 C   0  0  0  0  0  0  0  0  0  0  0  0
   25.5500   10.8410   18.6560 C   0  0  0  0  0  0  0  0  0  0  0  0
   25.8710   10.7460   20.0070 C   0  0  0  0  0  0  0  0  0  0  0  0
   24.8260   10.6610   20.9430 C   0  0  0  0  0  0  0  0  0  0  0  0
   29.8540   10.9130   21.4510 C   0  0  0  0  0  0  0  0  0  0  0  0
   27.8830    9.7800   21.2080 C   0  0  0  0  0  0  0  0  0  0  0  0
   27.3000   10.8010   20.4650 C   0  0  0  0  0  0  0  0  0  0  0  0
   28.0930   11.9190   20.2200 C   0  0  0  0  0  0  0  0  0  0  0  0
   29.3850   11.9780   20.7130 C   0  0  0  0  0  0  0  0  0  0  0  0
    0.0000    0.0000    0.0000 H   0  0  0  0  0  0  0  0  0  0  0  0
    0.0000    0.0000    0.0000 H   0  0  0  0  0  0  0  0  0  0  0  0
    0.0000    0.0000    0.0000 H   0  0  0  0  0  0  0  0  0  0  0  0
    0.0000    0.0000    0.0000 H   0  0  0  0  0  0  0  0  0  0  0  0
    0.0000    0.0000    0.0000 H   0  0  0  0  0  0  0  0  0  0  0  0
    0.0000    0.0000    0.0000 H   0  0  0  0  0  0  0  0  0  0  0  0
    0.0000    0.0000    0.0000 H   0  0  0  0  0  0  0  0  0  0  0  0
    0.0000    0.0000    0.0000 H   0  0  0  0  0  0  0  0  0  0  0  0
    0.0000    0.0000    0.0000 H   0  0  0  0  0  0  0  0  0  0  0  0
    0.0000    0.0000    0.0000 H   0  0  0  0  0  0  0  0  0  0  0  0
    0.0000    0.0000    0.0000 H   0  0  0  0  0  0  0  0  0  0  0  0
    0.0000    0.0000    0.0000 H   0  0  0  0  0  0  0  0  0  0  0  0
    0.0000    0.0000    0.0000 H   0  0  0  0  0  0  0  0  0  0  0  0
   10.8721    5.1920   10.4935 C   0  0  0  0  0  0  0  0  0  0  0  0
    9.6472    5.8181   10.3445 C   0  0  0  0  0  0  0  0  0  0  0  0
    8.7022    5.3772    9.4412 C   0  0  0  0  0  0  0  0  0  0  0  0
    9.0149    4.2722    8.6729 C   0  0  0  0  0  0  0  0  0  0  0  0
   10.2442    3.6554    8.8322 C   0  0  0  0  0  0  0  0  0  0  0  0
   10.5515    2.5702    8.0777 F   0  0  0  0  0  0  0  0  0  0  0  0
   11.1922    4.0887    9.7307 C   0  0  0  0  0  0  0  0  0  0  0  0
    9.3888    6.6811   10.9366 H   0  0  0  0  0  0  0  0  0  0  0  0
    7.7538    5.8494    9.3151 H   0  0  0  0  0  0  0  0  0  0  0  0
    8.2956    3.9050    7.9584 H   0  0  0  0  0  0  0  0  0  0  0  0
   12.1542    3.6133    9.8616 H   0  0  0  0  0  0  0  0  0  0  0  0
  1  3  2  0
  1  4  1  0
  2  4  1  0
  1  5  1  0
  2  6  1  0
  5  6  1  0
  6  7  2  3
  5  8  1  0
  4 10  1  6
 10 11  2  0
 11 12  1  0
 12 13  2  0
 13 14  1  0
 10 15  1  0
 14 15  2  0
  9 16  2  0
  9 17  1  0
 14 18  1  0
 17 18  2  0
 18 19  1  0
 16 20  1  0
 19 20  2  0
  2 21  1  0
  7 22  1  0
  8 23  1  0
  8 24  1  0
  8 25  1  0
 11 26  1  0
 12 27  1  0
 13 28  1  0
 15 29  1  0
 16 30  1  0
 17 31  1  0
 19 32  1  0
 20 33  1  0
 34 35  2  0
 35 36  1  0
 36 37  2  0
 37 38  1  0
 38 39  1  0
 38 40  2  0
 40 34  1  0
 35 41  1  0
 36 42  1  0
 37 43  1  0
 40 44  1  0
  4 34  1  0
M  END
>  <attachment_point>  (74) 
21

>  <score>  (74) 
<NA>

$$$$
4djw
     RDKit          3D

 46 48  0  0  0  0  0  0  0  0999 V2000
   22.4950   11.8750   22.5810 C   0  0  0  0  0  0  0  0  0  0  0  0
   22.5380    9.4930   22.4640 N   0  0  0  0  0  0  0  0  0  0  0  0
   22.3600   13.0630   22.3480 O   0  0  0  0  0  0  0  0  0  0  0  0
   22.3390   10.6680   21.5610 C   0  0  2  0  0  0  0  0  0  0  0  0
   22.7860   11.3350   23.8120 N   0  0  0  0  0  0  0  0  0  0  0  0
   22.7800    9.9140   23.7010 C   0  0  0  0  0  0  0  0  0  0  0  0
   22.9970    9.1110   24.7490 N   0  0  0  0  0  0  0  0  0  0  0  0
   23.0220   12.1410   25.0180 C   0  0  0  0  0  0  0  0  0  0  0  0
   29.1260    9.8230   21.7090 N   0  0  0  0  0  0  0  0  0  0  0  0
   23.4880   10.6920   20.5300 C   0  0  0  0  0  0  0  0  0  0  0  0
   23.2110   10.7890   19.1730 C   0  0  0  0  0  0  0  0  0  0  0  0
   24.2350   10.8650   18.2430 C   0  0  0  0  0  0  0  0  0  0  0  0
   25.5500   10.8410   18.6560 C   0  0  0  0  0  0  0  0  0  0  0  0
   25.8710   10.7460   20.0070 C   0  0  0  0  0  0  0  0  0  0  0  0
   24.8260   10.6610   20.9430 C   0  0  0  0  0  0  0  0  0  0  0  0
   29.8540   10.9130   21.4510 C   0  0  0  0  0  0  0  0  0  0  0  0
   27.8830    9.7800   21.2080 C   0  0  0  0  0  0  0  0  0  0  0  0
   27.3000   10.8010   20.4650 C   0  0  0  0  0  0  0  0  0  0  0  0
   28.0930   11.9190   20.2200 C   0  0  0  0  0  0  0  0  0  0  0  0
   29.3850   11.9780   20.7130 C   0  0  0  0  0  0  0  0  0  0  0  0
    0.0000    0.0000    0.0000 H   0  0  0  0  0  0  0  0  0  0  0  0
    0.0000    0.0000    0.0000 H   0  0  0  0  0  0  0  0  0  0  0  0
    0.0000    0.0000    0.0000 H   0  0  0  0  0  0  0  0  0  0  0  0
    0.0000    0.0000    0.0000 H   0  0  0  0  0  0  0  0  0  0  0  0
    0.0000    0.0000    0.0000 H   0  0  0  0  0  0  0  0  0  0  0  0
    0.0000    0.0000    0.0000 H   0  0  0  0  0  0  0  0  0  0  0  0
    0.0000    0.0000    0.0000 H   0  0  0  0  0  0  0  0  0  0  0  0
    0.0000    0.0000    0.0000 H   0  0  0  0  0  0  0  0  0  0  0  0
    0.0000    0.0000    0.0000 H   0  0  0  0  0  0  0  0  0  0  0  0
    0.0000    0.0000    0.0000 H   0  0  0  0  0  0  0  0  0  0  0  0
    0.0000    0.0000    0.0000 H   0  0  0  0  0  0  0  0  0  0  0  0
    0.0000    0.0000    0.0000 H   0  0  0  0  0  0  0  0  0  0  0  0
    0.0000    0.0000    0.0000 H   0  0  0  0  0  0  0  0  0  0  0  0
   10.8701    5.1910   10.4915 C   0  0  0  0  0  0  0  0  0  0  0  0
   11.5503    4.7492    9.2317 C   0  0  0  0  0  0  0  0  0  0  0  0
   12.5325    3.6330    9.4512 C   0  0  0  0  0  0  0  0  0  0  0  0
   12.3412    5.9512    8.7127 C   0  0  0  0  0  0  0  0  0  0  0  0
   10.2275    4.4213   10.9503 H   0  0  0  0  0  0  0  0  0  0  0  0
   10.2612    6.0868   10.2368 H   0  0  0  0  0  0  0  0  0  0  0  0
   10.7590    4.4735    8.5013 H   0  0  0  0  0  0  0  0  0  0  0  0
   13.5474    4.0135    9.7137 H   0  0  0  0  0  0  0  0  0  0  0  0
   12.2230    2.9118   10.2202 H   0  0  0  0  0  0  0  0  0  0  0  0
   12.6654    3.1313    8.4505 H   0  0  0  0  0  0  0  0  0  0  0  0
   13.3790    5.6511    8.4185 H   0  0  0  0  0  0  0  0  0  0  0  0
   12.4507    6.7349    9.4743 H   0  0  0  0  0  0  0  0  0  0  0  0
   11.8686    6.3361    7.7948 H   0  0  0  0  0  0  0  0  0  0  0  0
  1  3  2  0
  1  4  1  0
  2  4  1  0
  1  5  1  0
  2  6  1  0
  5  6  1  0
  6  7  2  3
  5  8  1  0
  4 10  1  0
 10 11  2  0
 11 12  1  0
 12 13  2  0
 13 14  1  0
 10 15  1  0
 14 15  2  0
  9 16  2  0
  9 17  1  0
 14 18  1  0
 17 18  2  0
 18 19  1  0
 16 20  1  0
 19 20  2  0
  2 21  1  0
  7 22  1  0
  8 23  1  0
  8 24  1  0
  8 25  1  0
 11 26  1  0
 12 27  1  0
 13 28  1  0
 15 29  1  0
 16 30  1  0
 17 31  1  0
 19 32  1  0
 20 33  1  0
 34 35  1  0
 35 36  1  0
 35 37  1  0
 34 38  1  0
 34 39  1  0
 35 40  1  0
 36 41  1  0
 36 42  1  0
 36 43  1  0
 37 44  1  0
 37 45  1  0
 37 46  1  0
  4 34  1  6
M  END
>  <attachment_point>  (75) 
21

>  <score>  (75) 
<NA>

$$$$
4djw
     RDKit          3D

 44 46  0  0  0  0  0  0  0  0999 V2000
   22.4950   11.8750   22.5810 C   0  0  0  0  0  0  0  0  0  0  0  0
   22.5380    9.4930   22.4640 N   0  0  0  0  0  0  0  0  0  0  0  0
   22.3600   13.0630   22.3480 O   0  0  0  0  0  0  0  0  0  0  0  0
   22.3390   10.6680   21.5610 C   0  0  2  0  0  0  0  0  0  0  0  0
   22.7860   11.3350   23.8120 N   0  0  0  0  0  0  0  0  0  0  0  0
   22.7800    9.9140   23.7010 C   0  0  0  0  0  0  0  0  0  0  0  0
   22.9970    9.1110   24.7490 N   0  0  0  0  0  0  0  0  0  0  0  0
   23.0220   12.1410   25.0180 C   0  0  0  0  0  0  0  0  0  0  0  0
   29.1260    9.8230   21.7090 N   0  0  0  0  0  0  0  0  0  0  0  0
   23.4880   10.6920   20.5300 C   0  0  0  0  0  0  0  0  0  0  0  0
   23.2110   10.7890   19.1730 C   0  0  0  0  0  0  0  0  0  0  0  0
   24.2350   10.8650   18.2430 C   0  0  0  0  0  0  0  0  0  0  0  0
   25.5500   10.8410   18.6560 C   0  0  0  0  0  0  0  0  0  0  0  0
   25.8710   10.7460   20.0070 C   0  0  0  0  0  0  0  0  0  0  0  0
   24.8260   10.6610   20.9430 C   0  0  0  0  0  0  0  0  0  0  0  0
   29.8540   10.9130   21.4510 C   0  0  0  0  0  0  0  0  0  0  0  0
   27.8830    9.7800   21.2080 C   0  0  0  0  0  0  0  0  0  0  0  0
   27.3000   10.8010   20.4650 C   0  0  0  0  0  0  0  0  0  0  0  0
   28.0930   11.9190   20.2200 C   0  0  0  0  0  0  0  0  0  0  0  0
   29.3850   11.9780   20.7130 C   0  0  0  0  0  0  0  0  0  0  0  0
    0.0000    0.0000    0.0000 H   0  0  0  0  0  0  0  0  0  0  0  0
    0.0000    0.0000    0.0000 H   0  0  0  0  0  0  0  0  0  0  0  0
    0.0000    0.0000    0.0000 H   0  0  0  0  0  0  0  0  0  0  0  0
    0.0000    0.0000    0.0000 H   0  0  0  0  0  0  0  0  0  0  0  0
    0.0000    0.0000    0.0000 H   0  0  0  0  0  0  0  0  0  0  0  0
    0.0000    0.0000    0.0000 H   0  0  0  0  0  0  0  0  0  0  0  0
    0.0000    0.0000    0.0000 H   0  0  0  0  0  0  0  0  0  0  0  0
    0.0000    0.0000    0.0000 H   0  0  0  0  0  0  0  0  0  0  0  0
    0.0000    0.0000    0.0000 H   0  0  0  0  0  0  0  0  0  0  0  0
    0.0000    0.0000    0.0000 H   0  0  0  0  0  0  0  0  0  0  0  0
    0.0000    0.0000    0.0000 H   0  0  0  0  0  0  0  0  0  0  0  0
    0.0000    0.0000    0.0000 H   0  0  0  0  0  0  0  0  0  0  0  0
    0.0000    0.0000    0.0000 H   0  0  0  0  0  0  0  0  0  0  0  0
   11.0000    5.2531   10.6169 O   0  0  0  0  0  0  0  0  0  0  0  0
    9.6167    4.9959   10.6285 C   0  0  0  0  0  0  0  0  0  0  0  0
    9.3850    3.5205   10.2766 C   0  0  0  0  0  0  0  0  0  0  0  0
    8.9340    5.8377    9.5677 C   0  0  0  0  0  0  0  0  0  0  0  0
    9.1960    5.2160   11.6305 H   0  0  0  0  0  0  0  0  0  0  0  0
   10.3246    2.9748   10.3834 H   0  0  0  0  0  0  0  0  0  0  0  0
    9.0598    3.4235    9.2126 H   0  0  0  0  0  0  0  0  0  0  0  0
    8.5594    3.1308   10.8858 H   0  0  0  0  0  0  0  0  0  0  0  0
    8.0961    6.4346    9.9814 H   0  0  0  0  0  0  0  0  0  0  0  0
    8.4610    5.1846    8.7805 H   0  0  0  0  0  0  0  0  0  0  0  0
    9.6408    6.5016    9.0371 H   0  0  0  0  0  0  0  0  0  0  0  0
  1  3  2  0
  1  4  1  0
  2  4  1  0
  1  5  1  0
  2  6  1  0
  5  6  1  0
  6  7  2  3
  5  8  1  0
  4 10  1  0
 10 11  2  0
 11 12  1  0
 12 13  2  0
 13 14  1  0
 10 15  1  0
 14 15  2  0
  9 16  2  0
  9 17  1  0
 14 18  1  0
 17 18  2  0
 18 19  1  0
 16 20  1  0
 19 20  2  0
  2 21  1  0
  7 22  1  0
  8 23  1  0
  8 24  1  0
  8 25  1  0
 11 26  1  0
 12 27  1  0
 13 28  1  0
 15 29  1  0
 16 30  1  0
 17 31  1  0
 19 32  1  0
 20 33  1  0
 34 35  1  0
 35 36  1  0
 35 37  1  0
 35 38  1  0
 36 39  1  0
 36 40  1  0
 36 41  1  0
 37 42  1  0
 37 43  1  0
 37 44  1  0
  4 34  1  6
M  END
>  <attachment_point>  (76) 
21

>  <score>  (76) 
<NA>

$$$$
4djw
     RDKit          3D

 42 44  0  0  0  0  0  0  0  0999 V2000
   22.4950   11.8750   22.5810 C   0  0  0  0  0  0  0  0  0  0  0  0
   22.5380    9.4930   22.4640 N   0  0  0  0  0  0  0  0  0  0  0  0
   22.3600   13.0630   22.3480 O   0  0  0  0  0  0  0  0  0  0  0  0
   22.3390   10.6680   21.5610 C   0  0  2  0  0  0  0  0  0  0  0  0
   22.7860   11.3350   23.8120 N   0  0  0  0  0  0  0  0  0  0  0  0
   22.7800    9.9140   23.7010 C   0  0  0  0  0  0  0  0  0  0  0  0
   22.9970    9.1110   24.7490 N   0  0  0  0  0  0  0  0  0  0  0  0
   23.0220   12.1410   25.0180 C   0  0  0  0  0  0  0  0  0  0  0  0
   29.1260    9.8230   21.7090 N   0  0  0  0  0  0  0  0  0  0  0  0
   23.4880   10.6920   20.5300 C   0  0  0  0  0  0  0  0  0  0  0  0
   23.2110   10.7890   19.1730 C   0  0  0  0  0  0  0  0  0  0  0  0
   24.2350   10.8650   18.2430 C   0  0  0  0  0  0  0  0  0  0  0  0
   25.5500   10.8410   18.6560 C   0  0  0  0  0  0  0  0  0  0  0  0
   25.8710   10.7460   20.0070 C   0  0  0  0  0  0  0  0  0  0  0  0
   24.8260   10.6610   20.9430 C   0  0  0  0  0  0  0  0  0  0  0  0
   29.8540   10.9130   21.4510 C   0  0  0  0  0  0  0  0  0  0  0  0
   27.8830    9.7800   21.2080 C   0  0  0  0  0  0  0  0  0  0  0  0
   27.3000   10.8010   20.4650 C   0  0  0  0  0  0  0  0  0  0  0  0
   28.0930   11.9190   20.2200 C   0  0  0  0  0  0  0  0  0  0  0  0
   29.3850   11.9780   20.7130 C   0  0  0  0  0  0  0  0  0  0  0  0
    0.0000    0.0000    0.0000 H   0  0  0  0  0  0  0  0  0  0  0  0
    0.0000    0.0000    0.0000 H   0  0  0  0  0  0  0  0  0  0  0  0
    0.0000    0.0000    0.0000 H   0  0  0  0  0  0  0  0  0  0  0  0
    0.0000    0.0000    0.0000 H   0  0  0  0  0  0  0  0  0  0  0  0
    0.0000    0.0000    0.0000 H   0  0  0  0  0  0  0  0  0  0  0  0
    0.0000    0.0000    0.0000 H   0  0  0  0  0  0  0  0  0  0  0  0
    0.0000    0.0000    0.0000 H   0  0  0  0  0  0  0  0  0  0  0  0
    0.0000    0.0000    0.0000 H   0  0  0  0  0  0  0  0  0  0  0  0
    0.0000    0.0000    0.0000 H   0  0  0  0  0  0  0  0  0  0  0  0
    0.0000    0.0000    0.0000 H   0  0  0  0  0  0  0  0  0  0  0  0
    0.0000    0.0000    0.0000 H   0  0  0  0  0  0  0  0  0  0  0  0
    0.0000    0.0000    0.0000 H   0  0  0  0  0  0  0  0  0  0  0  0
    0.0000    0.0000    0.0000 H   0  0  0  0  0  0  0  0  0  0  0  0
   10.8271    5.1705   10.4501 N   0  0  0  0  0  0  0  0  0  0  0  0
    9.7169    6.4672   10.8266 S   0  0  0  0  0  6  0  0  0  0  0  0
    9.2235    6.3954   12.5312 C   0  0  0  0  0  0  0  0  0  0  0  0
    8.4992    6.3777    9.9939 O   0  0  0  0  0  0  0  0  0  0  0  0
   10.4311    7.7507   10.5173 O   0  0  0  0  0  0  0  0  0  0  0  0
   10.5920    4.3062   10.9897 H   0  0  0  0  0  0  0  0  0  0  0  0
   10.0740    6.0934   13.1440 H   0  0  0  0  0  0  0  0  0  0  0  0
    8.3355    5.7403   12.6702 H   0  0  0  0  0  0  0  0  0  0  0  0
    8.9774    7.4551   12.8242 H   0  0  0  0  0  0  0  0  0  0  0  0
  1  3  2  0
  1  4  1  0
  2  4  1  0
  1  5  1  0
  2  6  1  0
  5  6  1  0
  6  7  2  3
  5  8  1  0
  4 10  1  0
 10 11  2  0
 11 12  1  0
 12 13  2  0
 13 14  1  0
 10 15  1  0
 14 15  2  0
  9 16  2  0
  9 17  1  0
 14 18  1  0
 17 18  2  0
 18 19  1  0
 16 20  1  0
 19 20  2  0
  2 21  1  0
  7 22  1  0
  8 23  1  0
  8 24  1  0
  8 25  1  0
 11 26  1  0
 12 27  1  0
 13 28  1  0
 15 29  1  0
 16 30  1  0
 17 31  1  0
 19 32  1  0
 20 33  1  0
 34 35  1  0
 35 36  1  0
 35 37  2  0
 35 38  2  0
 34 39  1  0
 36 40  1  0
 36 41  1  0
 36 42  1  0
  4 34  1  6
M  END
>  <attachment_point>  (77) 
21

>  <score>  (77) 
<NA>

$$$$
4djw
     RDKit          3D

 49 51  0  0  0  0  0  0  0  0999 V2000
   22.4950   11.8750   22.5810 C   0  0  0  0  0  0  0  0  0  0  0  0
   22.5380    9.4930   22.4640 N   0  0  0  0  0  0  0  0  0  0  0  0
   22.3600   13.0630   22.3480 O   0  0  0  0  0  0  0  0  0  0  0  0
   22.3390   10.6680   21.5610 C   0  0  2  0  0  0  0  0  0  0  0  0
   22.7860   11.3350   23.8120 N   0  0  0  0  0  0  0  0  0  0  0  0
   22.7800    9.9140   23.7010 C   0  0  0  0  0  0  0  0  0  0  0  0
   22.9970    9.1110   24.7490 N   0  0  0  0  0  0  0  0  0  0  0  0
   23.0220   12.1410   25.0180 C   0  0  0  0  0  0  0  0  0  0  0  0
   29.1260    9.8230   21.7090 N   0  0  0  0  0  0  0  0  0  0  0  0
   23.4880   10.6920   20.5300 C   0  0  0  0  0  0  0  0  0  0  0  0
   23.2110   10.7890   19.1730 C   0  0  0  0  0  0  0  0  0  0  0  0
   24.2350   10.8650   18.2430 C   0  0  0  0  0  0  0  0  0  0  0  0
   25.5500   10.8410   18.6560 C   0  0  0  0  0  0  0  0  0  0  0  0
   25.8710   10.7460   20.0070 C   0  0  0  0  0  0  0  0  0  0  0  0
   24.8260   10.6610   20.9430 C   0  0  0  0  0  0  0  0  0  0  0  0
   29.8540   10.9130   21.4510 C   0  0  0  0  0  0  0  0  0  0  0  0
   27.8830    9.7800   21.2080 C   0  0  0  0  0  0  0  0  0  0  0  0
   27.3000   10.8010   20.4650 C   0  0  0  0  0  0  0  0  0  0  0  0
   28.0930   11.9190   20.2200 C   0  0  0  0  0  0  0  0  0  0  0  0
   29.3850   11.9780   20.7130 C   0  0  0  0  0  0  0  0  0  0  0  0
    0.0000    0.0000    0.0000 H   0  0  0  0  0  0  0  0  0  0  0  0
    0.0000    0.0000    0.0000 H   0  0  0  0  0  0  0  0  0  0  0  0
    0.0000    0.0000    0.0000 H   0  0  0  0  0  0  0  0  0  0  0  0
    0.0000    0.0000    0.0000 H   0  0  0  0  0  0  0  0  0  0  0  0
    0.0000    0.0000    0.0000 H   0  0  0  0  0  0  0  0  0  0  0  0
    0.0000    0.0000    0.0000 H   0  0  0  0  0  0  0  0  0  0  0  0
    0.0000    0.0000    0.0000 H   0  0  0  0  0  0  0  0  0  0  0  0
    0.0000    0.0000    0.0000 H   0  0  0  0  0  0  0  0  0  0  0  0
    0.0000    0.0000    0.0000 H   0  0  0  0  0  0  0  0  0  0  0  0
    0.0000    0.0000    0.0000 H   0  0  0  0  0  0  0  0  0  0  0  0
    0.0000    0.0000    0.0000 H   0  0  0  0  0  0  0  0  0  0  0  0
    0.0000    0.0000    0.0000 H   0  0  0  0  0  0  0  0  0  0  0  0
    0.0000    0.0000    0.0000 H   0  0  0  0  0  0  0  0  0  0  0  0
   10.7536    5.1354   10.3791 C   0  0  0  0  0  0  0  0  0  0  0  0
   11.3202    6.0794    9.3839 C   0  0  0  0  0  0  0  0  0  0  0  0
   10.5578    5.9410    8.1252 C   0  0  0  0  0  0  0  0  0  0  0  0
   11.1440    6.9170    7.0969 C   0  0  0  0  0  0  0  0  0  0  0  0
   10.4037    6.8224    5.7825 C   0  0  0  0  0  0  0  0  0  0  0  0
   11.2031    4.1793   10.4931 H   0  0  0  0  0  0  0  0  0  0  0  0
   10.0254    5.5009   11.0699 H   0  0  0  0  0  0  0  0  0  0  0  0
   11.1287    7.1225    9.7723 H   0  0  0  0  0  0  0  0  0  0  0  0
   12.3913    5.9494    9.1693 H   0  0  0  0  0  0  0  0  0  0  0  0
   10.4898    4.9259    7.7130 H   0  0  0  0  0  0  0  0  0  0  0  0
    9.5144    6.3299    8.3114 H   0  0  0  0  0  0  0  0  0  0  0  0
   11.1133    7.9453    7.4528 H   0  0  0  0  0  0  0  0  0  0  0  0
   12.1907    6.6089    6.9299 H   0  0  0  0  0  0  0  0  0  0  0  0
   10.9857    6.2034    5.0445 H   0  0  0  0  0  0  0  0  0  0  0  0
   10.3681    7.8417    5.3269 H   0  0  0  0  0  0  0  0  0  0  0  0
    9.4037    6.3916    5.8681 H   0  0  0  0  0  0  0  0  0  0  0  0
  1  3  2  0
  1  4  1  0
  2  4  1  0
  1  5  1  0
  2  6  1  0
  5  6  1  0
  6  7  2  3
  5  8  1  0
  4 10  1  0
 10 11  2  0
 11 12  1  0
 12 13  2  0
 13 14  1  0
 10 15  1  0
 14 15  2  0
  9 16  2  0
  9 17  1  0
 14 18  1  0
 17 18  2  0
 18 19  1  0
 16 20  1  0
 19 20  2  0
  2 21  1  0
  7 22  1  0
  8 23  1  0
  8 24  1  0
  8 25  1  0
 11 26  1  0
 12 27  1  0
 13 28  1  0
 15 29  1  0
 16 30  1  0
 17 31  1  0
 19 32  1  0
 20 33  1  0
 34 35  1  0
 35 36  1  0
 36 37  1  0
 37 38  1  0
 34 39  1  0
 34 40  1  0
 35 41  1  0
 35 42  1  0
 36 43  1  0
 36 44  1  0
 37 45  1  0
 37 46  1  0
 38 47  1  0
 38 48  1  0
 38 49  1  0
  4 34  1  6
M  END
>  <attachment_point>  (78) 
21

>  <score>  (78) 
<NA>

$$$$
4djw
     RDKit          3D

 44 47  0  0  0  0  0  0  0  0999 V2000
   22.4950   11.8750   22.5810 C   0  0  0  0  0  0  0  0  0  0  0  0
   22.5380    9.4930   22.4640 N   0  0  0  0  0  0  0  0  0  0  0  0
   22.3600   13.0630   22.3480 O   0  0  0  0  0  0  0  0  0  0  0  0
   22.3390   10.6680   21.5610 C   0  0  2  0  0  0  0  0  0  0  0  0
   22.7860   11.3350   23.8120 N   0  0  0  0  0  0  0  0  0  0  0  0
   22.7800    9.9140   23.7010 C   0  0  0  0  0  0  0  0  0  0  0  0
   22.9970    9.1110   24.7490 N   0  0  0  0  0  0  0  0  0  0  0  0
   23.0220   12.1410   25.0180 C   0  0  0  0  0  0  0  0  0  0  0  0
   29.1260    9.8230   21.7090 N   0  0  0  0  0  0  0  0  0  0  0  0
   23.4880   10.6920   20.5300 C   0  0  0  0  0  0  0  0  0  0  0  0
   23.2110   10.7890   19.1730 C   0  0  0  0  0  0  0  0  0  0  0  0
   24.2350   10.8650   18.2430 C   0  0  0  0  0  0  0  0  0  0  0  0
   25.5500   10.8410   18.6560 C   0  0  0  0  0  0  0  0  0  0  0  0
   25.8710   10.7460   20.0070 C   0  0  0  0  0  0  0  0  0  0  0  0
   24.8260   10.6610   20.9430 C   0  0  0  0  0  0  0  0  0  0  0  0
   29.8540   10.9130   21.4510 C   0  0  0  0  0  0  0  0  0  0  0  0
   27.8830    9.7800   21.2080 C   0  0  0  0  0  0  0  0  0  0  0  0
   27.3000   10.8010   20.4650 C   0  0  0  0  0  0  0  0  0  0  0  0
   28.0930   11.9190   20.2200 C   0  0  0  0  0  0  0  0  0  0  0  0
   29.3850   11.9780   20.7130 C   0  0  0  0  0  0  0  0  0  0  0  0
    0.0000    0.0000    0.0000 H   0  0  0  0  0  0  0  0  0  0  0  0
    0.0000    0.0000    0.0000 H   0  0  0  0  0  0  0  0  0  0  0  0
    0.0000    0.0000    0.0000 H   0  0  0  0  0  0  0  0  0  0  0  0
    0.0000    0.0000    0.0000 H   0  0  0  0  0  0  0  0  0  0  0  0
    0.0000    0.0000    0.0000 H   0  0  0  0  0  0  0  0  0  0  0  0
    0.0000    0.0000    0.0000 H   0  0  0  0  0  0  0  0  0  0  0  0
    0.0000    0.0000    0.0000 H   0  0  0  0  0  0  0  0  0  0  0  0
    0.0000    0.0000    0.0000 H   0  0  0  0  0  0  0  0  0  0  0  0
    0.0000    0.0000    0.0000 H   0  0  0  0  0  0  0  0  0  0  0  0
    0.0000    0.0000    0.0000 H   0  0  0  0  0  0  0  0  0  0  0  0
    0.0000    0.0000    0.0000 H   0  0  0  0  0  0  0  0  0  0  0  0
    0.0000    0.0000    0.0000 H   0  0  0  0  0  0  0  0  0  0  0  0
    0.0000    0.0000    0.0000 H   0  0  0  0  0  0  0  0  0  0  0  0
   10.8610    5.1867   10.4827 C   0  0  0  0  0  0  0  0  0  0  0  0
   11.2370    4.2524    9.5335 C   0  0  0  0  0  0  0  0  0  0  0  0
   10.2631    3.8227    8.6354 C   0  0  0  0  0  0  0  0  0  0  0  0
    8.9706    4.3011    8.6789 C   0  0  0  0  0  0  0  0  0  0  0  0
    8.6340    5.2316    9.6396 C   0  0  0  0  0  0  0  0  0  0  0  0
    9.5838    5.6732   10.5419 C   0  0  0  0  0  0  0  0  0  0  0  0
    9.2582    6.5971   11.4992 F   0  0  0  0  0  0  0  0  0  0  0  0
   12.2430    3.8571    9.4727 H   0  0  0  0  0  0  0  0  0  0  0  0
   10.4867    3.0877    7.8596 H   0  0  0  0  0  0  0  0  0  0  0  0
    8.2383    3.9537    7.9750 H   0  0  0  0  0  0  0  0  0  0  0  0
    7.6466    5.6304    9.7120 H   0  0  0  0  0  0  0  0  0  0  0  0
  1  3  2  0
  1  4  1  0
  2  4  1  0
  1  5  1  0
  2  6  1  0
  5  6  1  0
  6  7  2  3
  5  8  1  0
  4 10  1  6
 10 11  2  0
 11 12  1  0
 12 13  2  0
 13 14  1  0
 10 15  1  0
 14 15  2  0
  9 16  2  0
  9 17  1  0
 14 18  1  0
 17 18  2  0
 18 19  1  0
 16 20  1  0
 19 20  2  0
  2 21  1  0
  7 22  1  0
  8 23  1  0
  8 24  1  0
  8 25  1  0
 11 26  1  0
 12 27  1  0
 13 28  1  0
 15 29  1  0
 16 30  1  0
 17 31  1  0
 19 32  1  0
 20 33  1  0
 34 35  2  0
 35 36  1  0
 36 37  2  0
 37 38  1  0
 38 39  2  0
 39 40  1  0
 39 34  1  0
 35 41  1  0
 36 42  1  0
 37 43  1  0
 38 44  1  0
  4 34  1  0
M  END
>  <attachment_point>  (79) 
21

>  <score>  (79) 
<NA>

$$$$
4djw
     RDKit          3D

 49 52  0  0  0  0  0  0  0  0999 V2000
   22.4950   11.8750   22.5810 C   0  0  0  0  0  0  0  0  0  0  0  0
   22.5380    9.4930   22.4640 N   0  0  0  0  0  0  0  0  0  0  0  0
   22.3600   13.0630   22.3480 O   0  0  0  0  0  0  0  0  0  0  0  0
   22.3390   10.6680   21.5610 C   0  0  2  0  0  0  0  0  0  0  0  0
   22.7860   11.3350   23.8120 N   0  0  0  0  0  0  0  0  0  0  0  0
   22.7800    9.9140   23.7010 C   0  0  0  0  0  0  0  0  0  0  0  0
   22.9970    9.1110   24.7490 N   0  0  0  0  0  0  0  0  0  0  0  0
   23.0220   12.1410   25.0180 C   0  0  0  0  0  0  0  0  0  0  0  0
   29.1260    9.8230   21.7090 N   0  0  0  0  0  0  0  0  0  0  0  0
   23.4880   10.6920   20.5300 C   0  0  0  0  0  0  0  0  0  0  0  0
   23.2110   10.7890   19.1730 C   0  0  0  0  0  0  0  0  0  0  0  0
   24.2350   10.8650   18.2430 C   0  0  0  0  0  0  0  0  0  0  0  0
   25.5500   10.8410   18.6560 C   0  0  0  0  0  0  0  0  0  0  0  0
   25.8710   10.7460   20.0070 C   0  0  0  0  0  0  0  0  0  0  0  0
   24.8260   10.6610   20.9430 C   0  0  0  0  0  0  0  0  0  0  0  0
   29.8540   10.9130   21.4510 C   0  0  0  0  0  0  0  0  0  0  0  0
   27.8830    9.7800   21.2080 C   0  0  0  0  0  0  0  0  0  0  0  0
   27.3000   10.8010   20.4650 C   0  0  0  0  0  0  0  0  0  0  0  0
   28.0930   11.9190   20.2200 C   0  0  0  0  0  0  0  0  0  0  0  0
   29.3850   11.9780   20.7130 C   0  0  0  0  0  0  0  0  0  0  0  0
    0.0000    0.0000    0.0000 H   0  0  0  0  0  0  0  0  0  0  0  0
    0.0000    0.0000    0.0000 H   0  0  0  0  0  0  0  0  0  0  0  0
    0.0000    0.0000    0.0000 H   0  0  0  0  0  0  0  0  0  0  0  0
    0.0000    0.0000    0.0000 H   0  0  0  0  0  0  0  0  0  0  0  0
    0.0000    0.0000    0.0000 H   0  0  0  0  0  0  0  0  0  0  0  0
    0.0000    0.0000    0.0000 H   0  0  0  0  0  0  0  0  0  0  0  0
    0.0000    0.0000    0.0000 H   0  0  0  0  0  0  0  0  0  0  0  0
    0.0000    0.0000    0.0000 H   0  0  0  0  0  0  0  0  0  0  0  0
    0.0000    0.0000    0.0000 H   0  0  0  0  0  0  0  0  0  0  0  0
    0.0000    0.0000    0.0000 H   0  0  0  0  0  0  0  0  0  0  0  0
    0.0000    0.0000    0.0000 H   0  0  0  0  0  0  0  0  0  0  0  0
    0.0000    0.0000    0.0000 H   0  0  0  0  0  0  0  0  0  0  0  0
    0.0000    0.0000    0.0000 H   0  0  0  0  0  0  0  0  0  0  0  0
   10.8712    5.1915   10.4926 C   0  0  0  0  0  0  0  0  0  0  0  0
    9.7664    4.8688   10.9730 O   0  0  0  0  0  0  0  0  0  0  0  0
   11.2313    5.1362    9.1247 N   0  0  0  0  0  0  0  0  0  0  0  0
   10.2715    4.6708    8.1448 C   0  0  0  0  0  0  0  0  0  0  0  0
   10.9741    3.7128    7.2177 C   0  0  0  0  0  0  0  0  0  0  0  0
   12.0081    4.4074    6.6047 O   0  0  0  0  0  0  0  0  0  0  0  0
   13.0227    4.6972    7.4949 C   0  0  0  0  0  0  0  0  0  0  0  0
   12.5321    5.5263    8.6348 C   0  0  0  0  0  0  0  0  0  0  0  0
    9.8520    5.4868    7.5388 H   0  0  0  0  0  0  0  0  0  0  0  0
    9.4113    4.1406    8.6298 H   0  0  0  0  0  0  0  0  0  0  0  0
   11.3664    2.8799    7.8272 H   0  0  0  0  0  0  0  0  0  0  0  0
   10.2693    3.3749    6.4319 H   0  0  0  0  0  0  0  0  0  0  0  0
   13.7677    5.3256    6.9236 H   0  0  0  0  0  0  0  0  0  0  0  0
   13.5212    3.7563    7.8431 H   0  0  0  0  0  0  0  0  0  0  0  0
   12.4572    6.5874    8.3242 H   0  0  0  0  0  0  0  0  0  0  0  0
   13.2336    5.4278    9.5086 H   0  0  0  0  0  0  0  0  0  0  0  0
  1  3  2  0
  1  4  1  0
  2  4  1  0
  1  5  1  0
  2  6  1  0
  5  6  1  0
  6  7  2  3
  5  8  1  0
  4 10  1  0
 10 11  2  0
 11 12  1  0
 12 13  2  0
 13 14  1  0
 10 15  1  0
 14 15  2  0
  9 16  2  0
  9 17  1  0
 14 18  1  0
 17 18  2  0
 18 19  1  0
 16 20  1  0
 19 20  2  0
  2 21  1  0
  7 22  1  0
  8 23  1  0
  8 24  1  0
  8 25  1  0
 11 26  1  0
 12 27  1  0
 13 28  1  0
 15 29  1  0
 16 30  1  0
 17 31  1  0
 19 32  1  0
 20 33  1  0
 34 35  2  0
 34 36  1  0
 36 37  1  0
 37 38  1  0
 38 39  1  0
 39 40  1  0
 40 41  1  0
 41 36  1  0
 37 42  1  0
 37 43  1  0
 38 44  1  0
 38 45  1  0
 40 46  1  0
 40 47  1  0
 41 48  1  0
 41 49  1  0
  4 34  1  6
M  END
>  <attachment_point>  (80) 
21

>  <score>  (80) 
<NA>

$$$$
4djw
     RDKit          3D

 38 40  0  0  0  0  0  0  0  0999 V2000
   22.4950   11.8750   22.5810 C   0  0  0  0  0  0  0  0  0  0  0  0
   22.5380    9.4930   22.4640 N   0  0  0  0  0  0  0  0  0  0  0  0
   22.3600   13.0630   22.3480 O   0  0  0  0  0  0  0  0  0  0  0  0
   22.3390   10.6680   21.5610 C   0  0  2  0  0  0  0  0  0  0  0  0
   22.7860   11.3350   23.8120 N   0  0  0  0  0  0  0  0  0  0  0  0
   22.7800    9.9140   23.7010 C   0  0  0  0  0  0  0  0  0  0  0  0
   22.9970    9.1110   24.7490 N   0  0  0  0  0  0  0  0  0  0  0  0
   23.0220   12.1410   25.0180 C   0  0  0  0  0  0  0  0  0  0  0  0
   29.1260    9.8230   21.7090 N   0  0  0  0  0  0  0  0  0  0  0  0
   23.4880   10.6920   20.5300 C   0  0  0  0  0  0  0  0  0  0  0  0
   23.2110   10.7890   19.1730 C   0  0  0  0  0  0  0  0  0  0  0  0
   24.2350   10.8650   18.2430 C   0  0  0  0  0  0  0  0  0  0  0  0
   25.5500   10.8410   18.6560 C   0  0  0  0  0  0  0  0  0  0  0  0
   25.8710   10.7460   20.0070 C   0  0  0  0  0  0  0  0  0  0  0  0
   24.8260   10.6610   20.9430 C   0  0  0  0  0  0  0  0  0  0  0  0
   29.8540   10.9130   21.4510 C   0  0  0  0  0  0  0  0  0  0  0  0
   27.8830    9.7800   21.2080 C   0  0  0  0  0  0  0  0  0  0  0  0
   27.3000   10.8010   20.4650 C   0  0  0  0  0  0  0  0  0  0  0  0
   28.0930   11.9190   20.2200 C   0  0  0  0  0  0  0  0  0  0  0  0
   29.3850   11.9780   20.7130 C   0  0  0  0  0  0  0  0  0  0  0  0
    0.0000    0.0000    0.0000 H   0  0  0  0  0  0  0  0  0  0  0  0
    0.0000    0.0000    0.0000 H   0  0  0  0  0  0  0  0  0  0  0  0
    0.0000    0.0000    0.0000 H   0  0  0  0  0  0  0  0  0  0  0  0
    0.0000    0.0000    0.0000 H   0  0  0  0  0  0  0  0  0  0  0  0
    0.0000    0.0000    0.0000 H   0  0  0  0  0  0  0  0  0  0  0  0
    0.0000    0.0000    0.0000 H   0  0  0  0  0  0  0  0  0  0  0  0
    0.0000    0.0000    0.0000 H   0  0  0  0  0  0  0  0  0  0  0  0
    0.0000    0.0000    0.0000 H   0  0  0  0  0  0  0  0  0  0  0  0
    0.0000    0.0000    0.0000 H   0  0  0  0  0  0  0  0  0  0  0  0
    0.0000    0.0000    0.0000 H   0  0  0  0  0  0  0  0  0  0  0  0
    0.0000    0.0000    0.0000 H   0  0  0  0  0  0  0  0  0  0  0  0
    0.0000    0.0000    0.0000 H   0  0  0  0  0  0  0  0  0  0  0  0
    0.0000    0.0000    0.0000 H   0  0  0  0  0  0  0  0  0  0  0  0
   10.9745    5.2409   10.5923 O   0  0  0  0  0  0  0  0  0  0  0  0
   11.1458    4.5741    9.3883 C   0  0  0  0  0  0  0  0  0  0  0  0
    9.9043    4.3456    8.8570 F   0  0  0  0  0  0  0  0  0  0  0  0
   11.9165    5.3600    8.5600 F   0  0  0  0  0  0  0  0  0  0  0  0
   11.7944    3.3930    9.6612 F   0  0  0  0  0  0  0  0  0  0  0  0
  1  3  2  0
  1  4  1  0
  2  4  1  0
  1  5  1  0
  2  6  1  0
  5  6  1  0
  6  7  2  3
  5  8  1  0
  4 10  1  0
 10 11  2  0
 11 12  1  0
 12 13  2  0
 13 14  1  0
 10 15  1  0
 14 15  2  0
  9 16  2  0
  9 17  1  0
 14 18  1  0
 17 18  2  0
 18 19  1  0
 16 20  1  0
 19 20  2  0
  2 21  1  0
  7 22  1  0
  8 23  1  0
  8 24  1  0
  8 25  1  0
 11 26  1  0
 12 27  1  0
 13 28  1  0
 15 29  1  0
 16 30  1  0
 17 31  1  0
 19 32  1  0
 20 33  1  0
 34 35  1  0
 35 36  1  0
 35 37  1  0
 35 38  1  0
  4 34  1  6
M  END
>  <attachment_point>  (81) 
21

>  <score>  (81) 
<NA>

$$$$
4djw
     RDKit          3D

 41 43  0  0  0  0  0  0  0  0999 V2000
   22.4950   11.8750   22.5810 C   0  0  0  0  0  0  0  0  0  0  0  0
   22.5380    9.4930   22.4640 N   0  0  0  0  0  0  0  0  0  0  0  0
   22.3600   13.0630   22.3480 O   0  0  0  0  0  0  0  0  0  0  0  0
   22.3390   10.6680   21.5610 C   0  0  2  0  0  0  0  0  0  0  0  0
   22.7860   11.3350   23.8120 N   0  0  0  0  0  0  0  0  0  0  0  0
   22.7800    9.9140   23.7010 C   0  0  0  0  0  0  0  0  0  0  0  0
   22.9970    9.1110   24.7490 N   0  0  0  0  0  0  0  0  0  0  0  0
   23.0220   12.1410   25.0180 C   0  0  0  0  0  0  0  0  0  0  0  0
   29.1260    9.8230   21.7090 N   0  0  0  0  0  0  0  0  0  0  0  0
   23.4880   10.6920   20.5300 C   0  0  0  0  0  0  0  0  0  0  0  0
   23.2110   10.7890   19.1730 C   0  0  0  0  0  0  0  0  0  0  0  0
   24.2350   10.8650   18.2430 C   0  0  0  0  0  0  0  0  0  0  0  0
   25.5500   10.8410   18.6560 C   0  0  0  0  0  0  0  0  0  0  0  0
   25.8710   10.7460   20.0070 C   0  0  0  0  0  0  0  0  0  0  0  0
   24.8260   10.6610   20.9430 C   0  0  0  0  0  0  0  0  0  0  0  0
   29.8540   10.9130   21.4510 C   0  0  0  0  0  0  0  0  0  0  0  0
   27.8830    9.7800   21.2080 C   0  0  0  0  0  0  0  0  0  0  0  0
   27.3000   10.8010   20.4650 C   0  0  0  0  0  0  0  0  0  0  0  0
   28.0930   11.9190   20.2200 C   0  0  0  0  0  0  0  0  0  0  0  0
   29.3850   11.9780   20.7130 C   0  0  0  0  0  0  0  0  0  0  0  0
    0.0000    0.0000    0.0000 H   0  0  0  0  0  0  0  0  0  0  0  0
    0.0000    0.0000    0.0000 H   0  0  0  0  0  0  0  0  0  0  0  0
    0.0000    0.0000    0.0000 H   0  0  0  0  0  0  0  0  0  0  0  0
    0.0000    0.0000    0.0000 H   0  0  0  0  0  0  0  0  0  0  0  0
    0.0000    0.0000    0.0000 H   0  0  0  0  0  0  0  0  0  0  0  0
    0.0000    0.0000    0.0000 H   0  0  0  0  0  0  0  0  0  0  0  0
    0.0000    0.0000    0.0000 H   0  0  0  0  0  0  0  0  0  0  0  0
    0.0000    0.0000    0.0000 H   0  0  0  0  0  0  0  0  0  0  0  0
    0.0000    0.0000    0.0000 H   0  0  0  0  0  0  0  0  0  0  0  0
    0.0000    0.0000    0.0000 H   0  0  0  0  0  0  0  0  0  0  0  0
    0.0000    0.0000    0.0000 H   0  0  0  0  0  0  0  0  0  0  0  0
    0.0000    0.0000    0.0000 H   0  0  0  0  0  0  0  0  0  0  0  0
    0.0000    0.0000    0.0000 H   0  0  0  0  0  0  0  0  0  0  0  0
   10.8838    5.1975   10.5047 C   0  0  0  0  0  0  0  0  0  0  0  0
    9.6476    4.8886   11.0354 O   0  0  0  0  0  0  0  0  0  0  0  0
    9.0246    5.9436   11.6545 C   0  0  0  0  0  0  0  0  0  0  0  0
   10.8079    5.9012    9.6436 H   0  0  0  0  0  0  0  0  0  0  0  0
   11.3058    4.2364   10.0988 H   0  0  0  0  0  0  0  0  0  0  0  0
    8.0491    5.5820   12.0390 H   0  0  0  0  0  0  0  0  0  0  0  0
    8.8093    6.7310   10.9158 H   0  0  0  0  0  0  0  0  0  0  0  0
    9.5733    6.3308   12.5442 H   0  0  0  0  0  0  0  0  0  0  0  0
  1  3  2  0
  1  4  1  0
  2  4  1  0
  1  5  1  0
  2  6  1  0
  5  6  1  0
  6  7  2  3
  5  8  1  0
  4 10  1  0
 10 11  2  0
 11 12  1  0
 12 13  2  0
 13 14  1  0
 10 15  1  0
 14 15  2  0
  9 16  2  0
  9 17  1  0
 14 18  1  0
 17 18  2  0
 18 19  1  0
 16 20  1  0
 19 20  2  0
  2 21  1  0
  7 22  1  0
  8 23  1  0
  8 24  1  0
  8 25  1  0
 11 26  1  0
 12 27  1  0
 13 28  1  0
 15 29  1  0
 16 30  1  0
 17 31  1  0
 19 32  1  0
 20 33  1  0
 34 35  1  0
 35 36  1  0
 34 37  1  0
 34 38  1  0
 36 39  1  0
 36 40  1  0
 36 41  1  0
  4 34  1  6
M  END
>  <attachment_point>  (82) 
21

>  <score>  (82) 
<NA>

$$$$
4djw
     RDKit          3D

 52 55  0  0  0  0  0  0  0  0999 V2000
   22.4950   11.8750   22.5810 C   0  0  0  0  0  0  0  0  0  0  0  0
   22.5380    9.4930   22.4640 N   0  0  0  0  0  0  0  0  0  0  0  0
   22.3600   13.0630   22.3480 O   0  0  0  0  0  0  0  0  0  0  0  0
   22.3390   10.6680   21.5610 C   0  0  2  0  0  0  0  0  0  0  0  0
   22.7860   11.3350   23.8120 N   0  0  0  0  0  0  0  0  0  0  0  0
   22.7800    9.9140   23.7010 C   0  0  0  0  0  0  0  0  0  0  0  0
   22.9970    9.1110   24.7490 N   0  0  0  0  0  0  0  0  0  0  0  0
   23.0220   12.1410   25.0180 C   0  0  0  0  0  0  0  0  0  0  0  0
   29.1260    9.8230   21.7090 N   0  0  0  0  0  0  0  0  0  0  0  0
   23.4880   10.6920   20.5300 C   0  0  0  0  0  0  0  0  0  0  0  0
   23.2110   10.7890   19.1730 C   0  0  0  0  0  0  0  0  0  0  0  0
   24.2350   10.8650   18.2430 C   0  0  0  0  0  0  0  0  0  0  0  0
   25.5500   10.8410   18.6560 C   0  0  0  0  0  0  0  0  0  0  0  0
   25.8710   10.7460   20.0070 C   0  0  0  0  0  0  0  0  0  0  0  0
   24.8260   10.6610   20.9430 C   0  0  0  0  0  0  0  0  0  0  0  0
   29.8540   10.9130   21.4510 C   0  0  0  0  0  0  0  0  0  0  0  0
   27.8830    9.7800   21.2080 C   0  0  0  0  0  0  0  0  0  0  0  0
   27.3000   10.8010   20.4650 C   0  0  0  0  0  0  0  0  0  0  0  0
   28.0930   11.9190   20.2200 C   0  0  0  0  0  0  0  0  0  0  0  0
   29.3850   11.9780   20.7130 C   0  0  0  0  0  0  0  0  0  0  0  0
    0.0000    0.0000    0.0000 H   0  0  0  0  0  0  0  0  0  0  0  0
    0.0000    0.0000    0.0000 H   0  0  0  0  0  0  0  0  0  0  0  0
    0.0000    0.0000    0.0000 H   0  0  0  0  0  0  0  0  0  0  0  0
    0.0000    0.0000    0.0000 H   0  0  0  0  0  0  0  0  0  0  0  0
    0.0000    0.0000    0.0000 H   0  0  0  0  0  0  0  0  0  0  0  0
    0.0000    0.0000    0.0000 H   0  0  0  0  0  0  0  0  0  0  0  0
    0.0000    0.0000    0.0000 H   0  0  0  0  0  0  0  0  0  0  0  0
    0.0000    0.0000    0.0000 H   0  0  0  0  0  0  0  0  0  0  0  0
    0.0000    0.0000    0.0000 H   0  0  0  0  0  0  0  0  0  0  0  0
    0.0000    0.0000    0.0000 H   0  0  0  0  0  0  0  0  0  0  0  0
    0.0000    0.0000    0.0000 H   0  0  0  0  0  0  0  0  0  0  0  0
    0.0000    0.0000    0.0000 H   0  0  0  0  0  0  0  0  0  0  0  0
    0.0000    0.0000    0.0000 H   0  0  0  0  0  0  0  0  0  0  0  0
   10.9468    5.2276   10.5655 N   0  0  0  0  0  0  0  0  0  0  0  0
   11.3096    4.8366    9.1893 C   0  0  0  0  0  0  0  0  0  0  0  0
   11.9097    6.0573    8.5582 C   0  0  0  0  0  0  0  0  0  0  0  0
   13.3854    6.1664    8.8561 C   0  0  0  0  0  0  0  0  0  0  0  0
   14.0316    4.9770    8.2092 C   0  0  0  0  0  0  0  0  0  0  0  0
   13.4882    3.6623    8.6373 C   0  0  0  0  0  0  0  0  0  0  0  0
   12.1243    3.6148    9.1629 C   0  0  0  0  0  0  0  0  0  0  0  0
    9.9933    5.6527   10.5996 H   0  0  0  0  0  0  0  0  0  0  0  0
   10.3076    4.6903    8.6836 H   0  0  0  0  0  0  0  0  0  0  0  0
   11.4108    6.9553    8.9748 H   0  0  0  0  0  0  0  0  0  0  0  0
   11.7284    6.0596    7.4756 H   0  0  0  0  0  0  0  0  0  0  0  0
   13.5851    6.1562    9.9254 H   0  0  0  0  0  0  0  0  0  0  0  0
   13.7632    7.0746    8.3408 H   0  0  0  0  0  0  0  0  0  0  0  0
   15.1258    5.0552    8.4011 H   0  0  0  0  0  0  0  0  0  0  0  0
   13.9367    5.0905    7.0886 H   0  0  0  0  0  0  0  0  0  0  0  0
   13.6274    2.9605    7.7581 H   0  0  0  0  0  0  0  0  0  0  0  0
   14.2226    3.2444    9.3928 H   0  0  0  0  0  0  0  0  0  0  0  0
   12.1338    3.1883   10.2134 H   0  0  0  0  0  0  0  0  0  0  0  0
   11.5488    2.8210    8.5951 H   0  0  0  0  0  0  0  0  0  0  0  0
  1  3  2  0
  1  4  1  0
  2  4  1  0
  1  5  1  0
  2  6  1  0
  5  6  1  0
  6  7  2  3
  5  8  1  0
  4 10  1  0
 10 11  2  0
 11 12  1  0
 12 13  2  0
 13 14  1  0
 10 15  1  0
 14 15  2  0
  9 16  2  0
  9 17  1  0
 14 18  1  0
 17 18  2  0
 18 19  1  0
 16 20  1  0
 19 20  2  0
  2 21  1  0
  7 22  1  0
  8 23  1  0
  8 24  1  0
  8 25  1  0
 11 26  1  0
 12 27  1  0
 13 28  1  0
 15 29  1  0
 16 30  1  0
 17 31  1  0
 19 32  1  0
 20 33  1  0
 34 35  1  0
 35 36  1  0
 36 37  1  0
 37 38  1  0
 38 39  1  0
 39 40  1  0
 40 35  1  0
 34 41  1  0
 35 42  1  0
 36 43  1  0
 36 44  1  0
 37 45  1  0
 37 46  1  0
 38 47  1  0
 38 48  1  0
 39 49  1  0
 39 50  1  0
 40 51  1  0
 40 52  1  0
  4 34  1  6
M  END
>  <attachment_point>  (83) 
21

>  <score>  (83) 
<NA>

$$$$
4djw
     RDKit          3D

 36 38  0  0  0  0  0  0  0  0999 V2000
   22.4950   11.8750   22.5810 C   0  0  0  0  0  0  0  0  0  0  0  0
   22.5380    9.4930   22.4640 N   0  0  0  0  0  0  0  0  0  0  0  0
   22.3600   13.0630   22.3480 O   0  0  0  0  0  0  0  0  0  0  0  0
   22.3390   10.6680   21.5610 C   0  0  2  0  0  0  0  0  0  0  0  0
   22.7860   11.3350   23.8120 N   0  0  0  0  0  0  0  0  0  0  0  0
   22.7800    9.9140   23.7010 C   0  0  0  0  0  0  0  0  0  0  0  0
   22.9970    9.1110   24.7490 N   0  0  0  0  0  0  0  0  0  0  0  0
   23.0220   12.1410   25.0180 C   0  0  0  0  0  0  0  0  0  0  0  0
   29.1260    9.8230   21.7090 N   0  0  0  0  0  0  0  0  0  0  0  0
   23.4880   10.6920   20.5300 C   0  0  0  0  0  0  0  0  0  0  0  0
   23.2110   10.7890   19.1730 C   0  0  0  0  0  0  0  0  0  0  0  0
   24.2350   10.8650   18.2430 C   0  0  0  0  0  0  0  0  0  0  0  0
   25.5500   10.8410   18.6560 C   0  0  0  0  0  0  0  0  0  0  0  0
   25.8710   10.7460   20.0070 C   0  0  0  0  0  0  0  0  0  0  0  0
   24.8260   10.6610   20.9430 C   0  0  0  0  0  0  0  0  0  0  0  0
   29.8540   10.9130   21.4510 C   0  0  0  0  0  0  0  0  0  0  0  0
   27.8830    9.7800   21.2080 C   0  0  0  0  0  0  0  0  0  0  0  0
   27.3000   10.8010   20.4650 C   0  0  0  0  0  0  0  0  0  0  0  0
   28.0930   11.9190   20.2200 C   0  0  0  0  0  0  0  0  0  0  0  0
   29.3850   11.9780   20.7130 C   0  0  0  0  0  0  0  0  0  0  0  0
    0.0000    0.0000    0.0000 H   0  0  0  0  0  0  0  0  0  0  0  0
    0.0000    0.0000    0.0000 H   0  0  0  0  0  0  0  0  0  0  0  0
    0.0000    0.0000    0.0000 H   0  0  0  0  0  0  0  0  0  0  0  0
    0.0000    0.0000    0.0000 H   0  0  0  0  0  0  0  0  0  0  0  0
    0.0000    0.0000    0.0000 H   0  0  0  0  0  0  0  0  0  0  0  0
    0.0000    0.0000    0.0000 H   0  0  0  0  0  0  0  0  0  0  0  0
    0.0000    0.0000    0.0000 H   0  0  0  0  0  0  0  0  0  0  0  0
    0.0000    0.0000    0.0000 H   0  0  0  0  0  0  0  0  0  0  0  0
    0.0000    0.0000    0.0000 H   0  0  0  0  0  0  0  0  0  0  0  0
    0.0000    0.0000    0.0000 H   0  0  0  0  0  0  0  0  0  0  0  0
    0.0000    0.0000    0.0000 H   0  0  0  0  0  0  0  0  0  0  0  0
    0.0000    0.0000    0.0000 H   0  0  0  0  0  0  0  0  0  0  0  0
    0.0000    0.0000    0.0000 H   0  0  0  0  0  0  0  0  0  0  0  0
   10.7756    5.1459   10.4003 C   0  0  0  0  0  0  0  0  0  0  0  0
    9.7633    5.5279   10.7630 O   0  0  0  0  0  0  0  0  0  0  0  0
   11.3139    4.6222    9.7113 H   0  0  0  0  0  0  0  0  0  0  0  0
  1  3  2  0
  1  4  1  0
  2  4  1  0
  1  5  1  0
  2  6  1  0
  5  6  1  0
  6  7  2  3
  5  8  1  0
  4 10  1  0
 10 11  2  0
 11 12  1  0
 12 13  2  0
 13 14  1  0
 10 15  1  0
 14 15  2  0
  9 16  2  0
  9 17  1  0
 14 18  1  0
 17 18  2  0
 18 19  1  0
 16 20  1  0
 19 20  2  0
  2 21  1  0
  7 22  1  0
  8 23  1  0
  8 24  1  0
  8 25  1  0
 11 26  1  0
 12 27  1  0
 13 28  1  0
 15 29  1  0
 16 30  1  0
 17 31  1  0
 19 32  1  0
 20 33  1  0
 34 35  2  0
 34 36  1  0
  4 34  1  6
M  END
>  <attachment_point>  (84) 
21

>  <score>  (84) 
<NA>

$$$$
4djw
     RDKit          3D

 48 51  0  0  0  0  0  0  0  0999 V2000
   22.4950   11.8750   22.5810 C   0  0  0  0  0  0  0  0  0  0  0  0
   22.5380    9.4930   22.4640 N   0  0  0  0  0  0  0  0  0  0  0  0
   22.3600   13.0630   22.3480 O   0  0  0  0  0  0  0  0  0  0  0  0
   22.3390   10.6680   21.5610 C   0  0  2  0  0  0  0  0  0  0  0  0
   22.7860   11.3350   23.8120 N   0  0  0  0  0  0  0  0  0  0  0  0
   22.7800    9.9140   23.7010 C   0  0  0  0  0  0  0  0  0  0  0  0
   22.9970    9.1110   24.7490 N   0  0  0  0  0  0  0  0  0  0  0  0
   23.0220   12.1410   25.0180 C   0  0  0  0  0  0  0  0  0  0  0  0
   29.1260    9.8230   21.7090 N   0  0  0  0  0  0  0  0  0  0  0  0
   23.4880   10.6920   20.5300 C   0  0  0  0  0  0  0  0  0  0  0  0
   23.2110   10.7890   19.1730 C   0  0  0  0  0  0  0  0  0  0  0  0
   24.2350   10.8650   18.2430 C   0  0  0  0  0  0  0  0  0  0  0  0
   25.5500   10.8410   18.6560 C   0  0  0  0  0  0  0  0  0  0  0  0
   25.8710   10.7460   20.0070 C   0  0  0  0  0  0  0  0  0  0  0  0
   24.8260   10.6610   20.9430 C   0  0  0  0  0  0  0  0  0  0  0  0
   29.8540   10.9130   21.4510 C   0  0  0  0  0  0  0  0  0  0  0  0
   27.8830    9.7800   21.2080 C   0  0  0  0  0  0  0  0  0  0  0  0
   27.3000   10.8010   20.4650 C   0  0  0  0  0  0  0  0  0  0  0  0
   28.0930   11.9190   20.2200 C   0  0  0  0  0  0  0  0  0  0  0  0
   29.3850   11.9780   20.7130 C   0  0  0  0  0  0  0  0  0  0  0  0
    0.0000    0.0000    0.0000 H   0  0  0  0  0  0  0  0  0  0  0  0
    0.0000    0.0000    0.0000 H   0  0  0  0  0  0  0  0  0  0  0  0
    0.0000    0.0000    0.0000 H   0  0  0  0  0  0  0  0  0  0  0  0
    0.0000    0.0000    0.0000 H   0  0  0  0  0  0  0  0  0  0  0  0
    0.0000    0.0000    0.0000 H   0  0  0  0  0  0  0  0  0  0  0  0
    0.0000    0.0000    0.0000 H   0  0  0  0  0  0  0  0  0  0  0  0
    0.0000    0.0000    0.0000 H   0  0  0  0  0  0  0  0  0  0  0  0
    0.0000    0.0000    0.0000 H   0  0  0  0  0  0  0  0  0  0  0  0
    0.0000    0.0000    0.0000 H   0  0  0  0  0  0  0  0  0  0  0  0
    0.0000    0.0000    0.0000 H   0  0  0  0  0  0  0  0  0  0  0  0
    0.0000    0.0000    0.0000 H   0  0  0  0  0  0  0  0  0  0  0  0
    0.0000    0.0000    0.0000 H   0  0  0  0  0  0  0  0  0  0  0  0
    0.0000    0.0000    0.0000 H   0  0  0  0  0  0  0  0  0  0  0  0
   10.8761    5.1939   10.4973 C   0  0  0  0  0  0  0  0  0  0  0  0
   10.6719    5.7795    9.2996 C   0  0  0  0  0  0  0  0  0  0  0  0
    9.7275    5.3154    8.4107 C   0  0  0  0  0  0  0  0  0  0  0  0
    8.9974    4.2173    8.8048 C   0  0  0  0  0  0  0  0  0  0  0  0
    9.1876    3.6217    9.9940 C   0  0  0  0  0  0  0  0  0  0  0  0
   10.1565    4.0564   10.9702 C   0  0  0  0  0  0  0  0  0  0  0  0
   10.2866    3.4989   12.0159 O   0  0  0  0  0  0  0  0  0  0  0  0
   10.4368    2.8522   13.2278 C   0  0  0  0  0  0  0  0  0  0  0  0
   11.2414    6.6584    8.9576 H   0  0  0  0  0  0  0  0  0  0  0  0
    9.5710    5.7915    7.4552 H   0  0  0  0  0  0  0  0  0  0  0  0
    8.2539    3.8769    8.0726 H   0  0  0  0  0  0  0  0  0  0  0  0
    8.5949    2.7523   10.2723 H   0  0  0  0  0  0  0  0  0  0  0  0
   11.5335    2.8442   13.4898 H   0  0  0  0  0  0  0  0  0  0  0  0
   10.0351    1.8128   13.2647 H   0  0  0  0  0  0  0  0  0  0  0  0
    9.9363    3.4180   14.0362 H   0  0  0  0  0  0  0  0  0  0  0  0
  1  3  2  0
  1  4  1  0
  2  4  1  0
  1  5  1  0
  2  6  1  0
  5  6  1  0
  6  7  2  3
  5  8  1  0
  4 10  1  6
 10 11  2  0
 11 12  1  0
 12 13  2  0
 13 14  1  0
 10 15  1  0
 14 15  2  0
  9 16  2  0
  9 17  1  0
 14 18  1  0
 17 18  2  0
 18 19  1  0
 16 20  1  0
 19 20  2  0
  2 21  1  0
  7 22  1  0
  8 23  1  0
  8 24  1  0
  8 25  1  0
 11 26  1  0
 12 27  1  0
 13 28  1  0
 15 29  1  0
 16 30  1  0
 17 31  1  0
 19 32  1  0
 20 33  1  0
 34 35  2  0
 35 36  1  0
 36 37  2  0
 37 38  1  0
 38 39  2  0
 39 40  1  0
 40 41  1  0
 39 34  1  0
 35 42  1  0
 36 43  1  0
 37 44  1  0
 38 45  1  0
 41 46  1  0
 41 47  1  0
 41 48  1  0
  4 34  1  0
M  END
>  <attachment_point>  (85) 
21

>  <score>  (85) 
<NA>

$$$$
4djw
     RDKit          3D

 48 51  0  0  0  0  0  0  0  0999 V2000
   22.4950   11.8750   22.5810 C   0  0  0  0  0  0  0  0  0  0  0  0
   22.5380    9.4930   22.4640 N   0  0  0  0  0  0  0  0  0  0  0  0
   22.3600   13.0630   22.3480 O   0  0  0  0  0  0  0  0  0  0  0  0
   22.3390   10.6680   21.5610 C   0  0  2  0  0  0  0  0  0  0  0  0
   22.7860   11.3350   23.8120 N   0  0  0  0  0  0  0  0  0  0  0  0
   22.7800    9.9140   23.7010 C   0  0  0  0  0  0  0  0  0  0  0  0
   22.9970    9.1110   24.7490 N   0  0  0  0  0  0  0  0  0  0  0  0
   23.0220   12.1410   25.0180 C   0  0  0  0  0  0  0  0  0  0  0  0
   29.1260    9.8230   21.7090 N   0  0  0  0  0  0  0  0  0  0  0  0
   23.4880   10.6920   20.5300 C   0  0  0  0  0  0  0  0  0  0  0  0
   23.2110   10.7890   19.1730 C   0  0  0  0  0  0  0  0  0  0  0  0
   24.2350   10.8650   18.2430 C   0  0  0  0  0  0  0  0  0  0  0  0
   25.5500   10.8410   18.6560 C   0  0  0  0  0  0  0  0  0  0  0  0
   25.8710   10.7460   20.0070 C   0  0  0  0  0  0  0  0  0  0  0  0
   24.8260   10.6610   20.9430 C   0  0  0  0  0  0  0  0  0  0  0  0
   29.8540   10.9130   21.4510 C   0  0  0  0  0  0  0  0  0  0  0  0
   27.8830    9.7800   21.2080 C   0  0  0  0  0  0  0  0  0  0  0  0
   27.3000   10.8010   20.4650 C   0  0  0  0  0  0  0  0  0  0  0  0
   28.0930   11.9190   20.2200 C   0  0  0  0  0  0  0  0  0  0  0  0
   29.3850   11.9780   20.7130 C   0  0  0  0  0  0  0  0  0  0  0  0
    0.0000    0.0000    0.0000 H   0  0  0  0  0  0  0  0  0  0  0  0
    0.0000    0.0000    0.0000 H   0  0  0  0  0  0  0  0  0  0  0  0
    0.0000    0.0000    0.0000 H   0  0  0  0  0  0  0  0  0  0  0  0
    0.0000    0.0000    0.0000 H   0  0  0  0  0  0  0  0  0  0  0  0
    0.0000    0.0000    0.0000 H   0  0  0  0  0  0  0  0  0  0  0  0
    0.0000    0.0000    0.0000 H   0  0  0  0  0  0  0  0  0  0  0  0
    0.0000    0.0000    0.0000 H   0  0  0  0  0  0  0  0  0  0  0  0
    0.0000    0.0000    0.0000 H   0  0  0  0  0  0  0  0  0  0  0  0
    0.0000    0.0000    0.0000 H   0  0  0  0  0  0  0  0  0  0  0  0
    0.0000    0.0000    0.0000 H   0  0  0  0  0  0  0  0  0  0  0  0
    0.0000    0.0000    0.0000 H   0  0  0  0  0  0  0  0  0  0  0  0
    0.0000    0.0000    0.0000 H   0  0  0  0  0  0  0  0  0  0  0  0
    0.0000    0.0000    0.0000 H   0  0  0  0  0  0  0  0  0  0  0  0
   10.8718    5.1918   10.4932 C   0  0  0  0  0  0  0  0  0  0  0  0
   10.8575    5.8078    9.4016 O   0  0  0  0  0  0  0  0  0  0  0  0
    9.9745    4.1206   10.7397 N   0  0  0  0  0  0  0  0  0  0  0  0
    9.0402    3.7274    9.7465 C   0  0  0  0  0  0  0  0  0  0  0  0
    7.7775    4.2729    9.6629 C   0  0  0  0  0  0  0  0  0  0  0  0
    6.8714    3.8835    8.6900 C   0  0  0  0  0  0  0  0  0  0  0  0
    7.1923    2.9258    7.7536 C   0  0  0  0  0  0  0  0  0  0  0  0
    8.4512    2.3770    7.8312 C   0  0  0  0  0  0  0  0  0  0  0  0
    9.3593    2.7697    8.8090 C   0  0  0  0  0  0  0  0  0  0  0  0
    9.9939    3.6133   11.6525 H   0  0  0  0  0  0  0  0  0  0  0  0
    7.5210    5.0307   10.4024 H   0  0  0  0  0  0  0  0  0  0  0  0
    5.9034    4.3536    8.6865 H   0  0  0  0  0  0  0  0  0  0  0  0
    6.4741    2.6149    6.9800 H   0  0  0  0  0  0  0  0  0  0  0  0
    8.7251    1.6210    7.1039 H   0  0  0  0  0  0  0  0  0  0  0  0
   10.3478    2.3295    8.8592 H   0  0  0  0  0  0  0  0  0  0  0  0
  1  3  2  0
  1  4  1  0
  2  4  1  0
  1  5  1  0
  2  6  1  0
  5  6  1  0
  6  7  2  3
  5  8  1  0
  4 10  1  0
 10 11  2  0
 11 12  1  0
 12 13  2  0
 13 14  1  0
 10 15  1  0
 14 15  2  0
  9 16  2  0
  9 17  1  0
 14 18  1  0
 17 18  2  0
 18 19  1  0
 16 20  1  0
 19 20  2  0
  2 21  1  0
  7 22  1  0
  8 23  1  0
  8 24  1  0
  8 25  1  0
 11 26  1  0
 12 27  1  0
 13 28  1  0
 15 29  1  0
 16 30  1  0
 17 31  1  0
 19 32  1  0
 20 33  1  0
 34 35  2  0
 34 36  1  0
 36 37  1  0
 37 38  2  0
 38 39  1  0
 39 40  2  0
 40 41  1  0
 41 42  2  0
 42 37  1  0
 36 43  1  0
 38 44  1  0
 39 45  1  0
 40 46  1  0
 41 47  1  0
 42 48  1  0
  4 34  1  6
M  END
>  <attachment_point>  (86) 
21

>  <score>  (86) 
<NA>

$$$$
4djw
     RDKit          3D

 47 49  0  0  0  0  0  0  0  0999 V2000
   22.4950   11.8750   22.5810 C   0  0  0  0  0  0  0  0  0  0  0  0
   22.5380    9.4930   22.4640 N   0  0  0  0  0  0  0  0  0  0  0  0
   22.3600   13.0630   22.3480 O   0  0  0  0  0  0  0  0  0  0  0  0
   22.3390   10.6680   21.5610 C   0  0  2  0  0  0  0  0  0  0  0  0
   22.7860   11.3350   23.8120 N   0  0  0  0  0  0  0  0  0  0  0  0
   22.7800    9.9140   23.7010 C   0  0  0  0  0  0  0  0  0  0  0  0
   22.9970    9.1110   24.7490 N   0  0  0  0  0  0  0  0  0  0  0  0
   23.0220   12.1410   25.0180 C   0  0  0  0  0  0  0  0  0  0  0  0
   29.1260    9.8230   21.7090 N   0  0  0  0  0  0  0  0  0  0  0  0
   23.4880   10.6920   20.5300 C   0  0  0  0  0  0  0  0  0  0  0  0
   23.2110   10.7890   19.1730 C   0  0  0  0  0  0  0  0  0  0  0  0
   24.2350   10.8650   18.2430 C   0  0  0  0  0  0  0  0  0  0  0  0
   25.5500   10.8410   18.6560 C   0  0  0  0  0  0  0  0  0  0  0  0
   25.8710   10.7460   20.0070 C   0  0  0  0  0  0  0  0  0  0  0  0
   24.8260   10.6610   20.9430 C   0  0  0  0  0  0  0  0  0  0  0  0
   29.8540   10.9130   21.4510 C   0  0  0  0  0  0  0  0  0  0  0  0
   27.8830    9.7800   21.2080 C   0  0  0  0  0  0  0  0  0  0  0  0
   27.3000   10.8010   20.4650 C   0  0  0  0  0  0  0  0  0  0  0  0
   28.0930   11.9190   20.2200 C   0  0  0  0  0  0  0  0  0  0  0  0
   29.3850   11.9780   20.7130 C   0  0  0  0  0  0  0  0  0  0  0  0
    0.0000    0.0000    0.0000 H   0  0  0  0  0  0  0  0  0  0  0  0
    0.0000    0.0000    0.0000 H   0  0  0  0  0  0  0  0  0  0  0  0
    0.0000    0.0000    0.0000 H   0  0  0  0  0  0  0  0  0  0  0  0
    0.0000    0.0000    0.0000 H   0  0  0  0  0  0  0  0  0  0  0  0
    0.0000    0.0000    0.0000 H   0  0  0  0  0  0  0  0  0  0  0  0
    0.0000    0.0000    0.0000 H   0  0  0  0  0  0  0  0  0  0  0  0
    0.0000    0.0000    0.0000 H   0  0  0  0  0  0  0  0  0  0  0  0
    0.0000    0.0000    0.0000 H   0  0  0  0  0  0  0  0  0  0  0  0
    0.0000    0.0000    0.0000 H   0  0  0  0  0  0  0  0  0  0  0  0
    0.0000    0.0000    0.0000 H   0  0  0  0  0  0  0  0  0  0  0  0
    0.0000    0.0000    0.0000 H   0  0  0  0  0  0  0  0  0  0  0  0
    0.0000    0.0000    0.0000 H   0  0  0  0  0  0  0  0  0  0  0  0
    0.0000    0.0000    0.0000 H   0  0  0  0  0  0  0  0  0  0  0  0
   10.8963    5.2035   10.5168 O   0  0  0  0  0  0  0  0  0  0  0  0
   10.6167    3.8634   10.8716 C   0  0  0  0  0  0  0  0  0  0  0  0
    9.5984    3.2669    9.9460 C   0  0  0  0  0  0  0  0  0  0  0  0
   10.0519    3.2578    8.5048 C   0  0  0  0  0  0  0  0  0  0  0  0
    8.9635    2.6405    7.6532 C   0  0  0  0  0  0  0  0  0  0  0  0
   11.5358    3.2682   10.9739 H   0  0  0  0  0  0  0  0  0  0  0  0
   10.1638    3.9253   11.8845 H   0  0  0  0  0  0  0  0  0  0  0  0
    9.3932    2.2303   10.2780 H   0  0  0  0  0  0  0  0  0  0  0  0
    8.6673    3.8500   10.0535 H   0  0  0  0  0  0  0  0  0  0  0  0
   10.1434    4.3256    8.1555 H   0  0  0  0  0  0  0  0  0  0  0  0
   11.0326    2.8067    8.3618 H   0  0  0  0  0  0  0  0  0  0  0  0
    8.1375    3.3722    7.4925 H   0  0  0  0  0  0  0  0  0  0  0  0
    8.5207    1.8005    8.2216 H   0  0  0  0  0  0  0  0  0  0  0  0
    9.3709    2.2531    6.7039 H   0  0  0  0  0  0  0  0  0  0  0  0
  1  3  2  0
  1  4  1  0
  2  4  1  0
  1  5  1  0
  2  6  1  0
  5  6  1  0
  6  7  2  3
  5  8  1  0
  4 10  1  0
 10 11  2  0
 11 12  1  0
 12 13  2  0
 13 14  1  0
 10 15  1  0
 14 15  2  0
  9 16  2  0
  9 17  1  0
 14 18  1  0
 17 18  2  0
 18 19  1  0
 16 20  1  0
 19 20  2  0
  2 21  1  0
  7 22  1  0
  8 23  1  0
  8 24  1  0
  8 25  1  0
 11 26  1  0
 12 27  1  0
 13 28  1  0
 15 29  1  0
 16 30  1  0
 17 31  1  0
 19 32  1  0
 20 33  1  0
 34 35  1  0
 35 36  1  0
 36 37  1  0
 37 38  1  0
 35 39  1  0
 35 40  1  0
 36 41  1  0
 36 42  1  0
 37 43  1  0
 37 44  1  0
 38 45  1  0
 38 46  1  0
 38 47  1  0
  4 34  1  6
M  END
>  <attachment_point>  (87) 
21

>  <score>  (87) 
<NA>

$$$$
4djw
     RDKit          3D

 42 45  0  0  0  0  0  0  0  0999 V2000
   22.4950   11.8750   22.5810 C   0  0  0  0  0  0  0  0  0  0  0  0
   22.5380    9.4930   22.4640 N   0  0  0  0  0  0  0  0  0  0  0  0
   22.3600   13.0630   22.3480 O   0  0  0  0  0  0  0  0  0  0  0  0
   22.3390   10.6680   21.5610 C   0  0  2  0  0  0  0  0  0  0  0  0
   22.7860   11.3350   23.8120 N   0  0  0  0  0  0  0  0  0  0  0  0
   22.7800    9.9140   23.7010 C   0  0  0  0  0  0  0  0  0  0  0  0
   22.9970    9.1110   24.7490 N   0  0  0  0  0  0  0  0  0  0  0  0
   23.0220   12.1410   25.0180 C   0  0  0  0  0  0  0  0  0  0  0  0
   29.1260    9.8230   21.7090 N   0  0  0  0  0  0  0  0  0  0  0  0
   23.4880   10.6920   20.5300 C   0  0  0  0  0  0  0  0  0  0  0  0
   23.2110   10.7890   19.1730 C   0  0  0  0  0  0  0  0  0  0  0  0
   24.2350   10.8650   18.2430 C   0  0  0  0  0  0  0  0  0  0  0  0
   25.5500   10.8410   18.6560 C   0  0  0  0  0  0  0  0  0  0  0  0
   25.8710   10.7460   20.0070 C   0  0  0  0  0  0  0  0  0  0  0  0
   24.8260   10.6610   20.9430 C   0  0  0  0  0  0  0  0  0  0  0  0
   29.8540   10.9130   21.4510 C   0  0  0  0  0  0  0  0  0  0  0  0
   27.8830    9.7800   21.2080 C   0  0  0  0  0  0  0  0  0  0  0  0
   27.3000   10.8010   20.4650 C   0  0  0  0  0  0  0  0  0  0  0  0
   28.0930   11.9190   20.2200 C   0  0  0  0  0  0  0  0  0  0  0  0
   29.3850   11.9780   20.7130 C   0  0  0  0  0  0  0  0  0  0  0  0
    0.0000    0.0000    0.0000 H   0  0  0  0  0  0  0  0  0  0  0  0
    0.0000    0.0000    0.0000 H   0  0  0  0  0  0  0  0  0  0  0  0
    0.0000    0.0000    0.0000 H   0  0  0  0  0  0  0  0  0  0  0  0
    0.0000    0.0000    0.0000 H   0  0  0  0  0  0  0  0  0  0  0  0
    0.0000    0.0000    0.0000 H   0  0  0  0  0  0  0  0  0  0  0  0
    0.0000    0.0000    0.0000 H   0  0  0  0  0  0  0  0  0  0  0  0
    0.0000    0.0000    0.0000 H   0  0  0  0  0  0  0  0  0  0  0  0
    0.0000    0.0000    0.0000 H   0  0  0  0  0  0  0  0  0  0  0  0
    0.0000    0.0000    0.0000 H   0  0  0  0  0  0  0  0  0  0  0  0
    0.0000    0.0000    0.0000 H   0  0  0  0  0  0  0  0  0  0  0  0
    0.0000    0.0000    0.0000 H   0  0  0  0  0  0  0  0  0  0  0  0
    0.0000    0.0000    0.0000 H   0  0  0  0  0  0  0  0  0  0  0  0
    0.0000    0.0000    0.0000 H   0  0  0  0  0  0  0  0  0  0  0  0
   10.8786    5.1951   10.4997 C   0  0  0  0  0  0  0  0  0  0  0  0
   10.2022    6.1254    9.7430 C   0  0  0  0  0  0  0  0  0  0  0  0
    9.2945    5.6899    8.8670 N   0  0  0  0  0  0  0  0  0  0  0  0
    9.0570    4.3562    8.7389 C   0  0  0  0  0  0  0  0  0  0  0  0
    9.7377    3.4262    9.5001 C   0  0  0  0  0  0  0  0  0  0  0  0
   10.6442    3.8577   10.3750 N   0  0  0  0  0  0  0  0  0  0  0  0
   10.4443    7.1682    9.8998 H   0  0  0  0  0  0  0  0  0  0  0  0
    8.3099    4.0379    8.0147 H   0  0  0  0  0  0  0  0  0  0  0  0
    9.4952    2.3814    9.3430 H   0  0  0  0  0  0  0  0  0  0  0  0
  1  3  2  0
  1  4  1  0
  2  4  1  0
  1  5  1  0
  2  6  1  0
  5  6  1  0
  6  7  2  3
  5  8  1  0
  4 10  1  6
 10 11  2  0
 11 12  1  0
 12 13  2  0
 13 14  1  0
 10 15  1  0
 14 15  2  0
  9 16  2  0
  9 17  1  0
 14 18  1  0
 17 18  2  0
 18 19  1  0
 16 20  1  0
 19 20  2  0
  2 21  1  0
  7 22  1  0
  8 23  1  0
  8 24  1  0
  8 25  1  0
 11 26  1  0
 12 27  1  0
 13 28  1  0
 15 29  1  0
 16 30  1  0
 17 31  1  0
 19 32  1  0
 20 33  1  0
 34 35  2  0
 35 36  1  0
 36 37  2  0
 37 38  1  0
 38 39  2  0
 39 34  1  0
 35 40  1  0
 37 41  1  0
 38 42  1  0
  4 34  1  0
M  END
>  <attachment_point>  (88) 
21

>  <score>  (88) 
<NA>

$$$$
4djw
     RDKit          3D

 50 54  0  0  0  0  0  0  0  0999 V2000
   22.4950   11.8750   22.5810 C   0  0  0  0  0  0  0  0  0  0  0  0
   22.5380    9.4930   22.4640 N   0  0  0  0  0  0  0  0  0  0  0  0
   22.3600   13.0630   22.3480 O   0  0  0  0  0  0  0  0  0  0  0  0
   22.3390   10.6680   21.5610 C   0  0  2  0  0  0  0  0  0  0  0  0
   22.7860   11.3350   23.8120 N   0  0  0  0  0  0  0  0  0  0  0  0
   22.7800    9.9140   23.7010 C   0  0  0  0  0  0  0  0  0  0  0  0
   22.9970    9.1110   24.7490 N   0  0  0  0  0  0  0  0  0  0  0  0
   23.0220   12.1410   25.0180 C   0  0  0  0  0  0  0  0  0  0  0  0
   29.1260    9.8230   21.7090 N   0  0  0  0  0  0  0  0  0  0  0  0
   23.4880   10.6920   20.5300 C   0  0  0  0  0  0  0  0  0  0  0  0
   23.2110   10.7890   19.1730 C   0  0  0  0  0  0  0  0  0  0  0  0
   24.2350   10.8650   18.2430 C   0  0  0  0  0  0  0  0  0  0  0  0
   25.5500   10.8410   18.6560 C   0  0  0  0  0  0  0  0  0  0  0  0
   25.8710   10.7460   20.0070 C   0  0  0  0  0  0  0  0  0  0  0  0
   24.8260   10.6610   20.9430 C   0  0  0  0  0  0  0  0  0  0  0  0
   29.8540   10.9130   21.4510 C   0  0  0  0  0  0  0  0  0  0  0  0
   27.8830    9.7800   21.2080 C   0  0  0  0  0  0  0  0  0  0  0  0
   27.3000   10.8010   20.4650 C   0  0  0  0  0  0  0  0  0  0  0  0
   28.0930   11.9190   20.2200 C   0  0  0  0  0  0  0  0  0  0  0  0
   29.3850   11.9780   20.7130 C   0  0  0  0  0  0  0  0  0  0  0  0
    0.0000    0.0000    0.0000 H   0  0  0  0  0  0  0  0  0  0  0  0
    0.0000    0.0000    0.0000 H   0  0  0  0  0  0  0  0  0  0  0  0
    0.0000    0.0000    0.0000 H   0  0  0  0  0  0  0  0  0  0  0  0
    0.0000    0.0000    0.0000 H   0  0  0  0  0  0  0  0  0  0  0  0
    0.0000    0.0000    0.0000 H   0  0  0  0  0  0  0  0  0  0  0  0
    0.0000    0.0000    0.0000 H   0  0  0  0  0  0  0  0  0  0  0  0
    0.0000    0.0000    0.0000 H   0  0  0  0  0  0  0  0  0  0  0  0
    0.0000    0.0000    0.0000 H   0  0  0  0  0  0  0  0  0  0  0  0
    0.0000    0.0000    0.0000 H   0  0  0  0  0  0  0  0  0  0  0  0
    0.0000    0.0000    0.0000 H   0  0  0  0  0  0  0  0  0  0  0  0
    0.0000    0.0000    0.0000 H   0  0  0  0  0  0  0  0  0  0  0  0
    0.0000    0.0000    0.0000 H   0  0  0  0  0  0  0  0  0  0  0  0
    0.0000    0.0000    0.0000 H   0  0  0  0  0  0  0  0  0  0  0  0
   10.8608    5.1866   10.4826 C   0  0  0  0  0  0  0  0  0  0  0  0
   10.3115    3.9427   10.6342 C   0  0  0  0  0  0  0  0  0  0  0  0
    9.3664    3.4599    9.7439 C   0  0  0  0  0  0  0  0  0  0  0  0
    9.0050    4.2938    8.6960 C   0  0  0  0  0  0  0  0  0  0  0  0
    8.0609    3.8702    7.7657 C   0  0  0  0  0  0  0  0  0  0  0  0
    7.6981    4.6971    6.7209 C   0  0  0  0  0  0  0  0  0  0  0  0
    8.2377    5.9516    6.5492 C   0  0  0  0  0  0  0  0  0  0  0  0
    9.1738    6.3766    7.4681 C   0  0  0  0  0  0  0  0  0  0  0  0
    9.5450    5.5509    8.5229 C   0  0  0  0  0  0  0  0  0  0  0  0
   10.4866    5.9974    9.4342 C   0  0  0  0  0  0  0  0  0  0  0  0
   10.6105    3.3112   11.4606 H   0  0  0  0  0  0  0  0  0  0  0  0
    8.9215    2.4786    9.8486 H   0  0  0  0  0  0  0  0  0  0  0  0
    7.6464    2.8822    7.9145 H   0  0  0  0  0  0  0  0  0  0  0  0
    6.9709    4.3737    6.0024 H   0  0  0  0  0  0  0  0  0  0  0  0
    7.9467    6.5980    5.7229 H   0  0  0  0  0  0  0  0  0  0  0  0
    9.6247    7.3655    7.3658 H   0  0  0  0  0  0  0  0  0  0  0  0
   10.9347    6.9958    9.3218 H   0  0  0  0  0  0  0  0  0  0  0  0
  1  3  2  0
  1  4  1  0
  2  4  1  0
  1  5  1  0
  2  6  1  0
  5  6  1  0
  6  7  2  3
  5  8  1  0
  4 10  1  6
 10 11  2  0
 11 12  1  0
 12 13  2  0
 13 14  1  0
 10 15  1  0
 14 15  2  0
  9 16  2  0
  9 17  1  0
 14 18  1  0
 17 18  2  0
 18 19  1  0
 16 20  1  0
 19 20  2  0
  2 21  1  0
  7 22  1  0
  8 23  1  0
  8 24  1  0
  8 25  1  0
 11 26  1  0
 12 27  1  0
 13 28  1  0
 15 29  1  0
 16 30  1  0
 17 31  1  0
 19 32  1  0
 20 33  1  0
 34 35  2  0
 35 36  1  0
 36 37  2  0
 37 38  1  0
 38 39  2  0
 39 40  1  0
 40 41  2  0
 41 42  1  0
 42 43  2  0
 43 34  1  0
 42 37  1  0
 35 44  1  0
 36 45  1  0
 38 46  1  0
 39 47  1  0
 40 48  1  0
 41 49  1  0
 43 50  1  0
  4 34  1  0
M  END
>  <attachment_point>  (89) 
21

>  <score>  (89) 
<NA>

$$$$
4djw
     RDKit          3D

 50 54  0  0  0  0  0  0  0  0999 V2000
   22.4950   11.8750   22.5810 C   0  0  0  0  0  0  0  0  0  0  0  0
   22.5380    9.4930   22.4640 N   0  0  0  0  0  0  0  0  0  0  0  0
   22.3600   13.0630   22.3480 O   0  0  0  0  0  0  0  0  0  0  0  0
   22.3390   10.6680   21.5610 C   0  0  2  0  0  0  0  0  0  0  0  0
   22.7860   11.3350   23.8120 N   0  0  0  0  0  0  0  0  0  0  0  0
   22.7800    9.9140   23.7010 C   0  0  0  0  0  0  0  0  0  0  0  0
   22.9970    9.1110   24.7490 N   0  0  0  0  0  0  0  0  0  0  0  0
   23.0220   12.1410   25.0180 C   0  0  0  0  0  0  0  0  0  0  0  0
   29.1260    9.8230   21.7090 N   0  0  0  0  0  0  0  0  0  0  0  0
   23.4880   10.6920   20.5300 C   0  0  0  0  0  0  0  0  0  0  0  0
   23.2110   10.7890   19.1730 C   0  0  0  0  0  0  0  0  0  0  0  0
   24.2350   10.8650   18.2430 C   0  0  0  0  0  0  0  0  0  0  0  0
   25.5500   10.8410   18.6560 C   0  0  0  0  0  0  0  0  0  0  0  0
   25.8710   10.7460   20.0070 C   0  0  0  0  0  0  0  0  0  0  0  0
   24.8260   10.6610   20.9430 C   0  0  0  0  0  0  0  0  0  0  0  0
   29.8540   10.9130   21.4510 C   0  0  0  0  0  0  0  0  0  0  0  0
   27.8830    9.7800   21.2080 C   0  0  0  0  0  0  0  0  0  0  0  0
   27.3000   10.8010   20.4650 C   0  0  0  0  0  0  0  0  0  0  0  0
   28.0930   11.9190   20.2200 C   0  0  0  0  0  0  0  0  0  0  0  0
   29.3850   11.9780   20.7130 C   0  0  0  0  0  0  0  0  0  0  0  0
    0.0000    0.0000    0.0000 H   0  0  0  0  0  0  0  0  0  0  0  0
    0.0000    0.0000    0.0000 H   0  0  0  0  0  0  0  0  0  0  0  0
    0.0000    0.0000    0.0000 H   0  0  0  0  0  0  0  0  0  0  0  0
    0.0000    0.0000    0.0000 H   0  0  0  0  0  0  0  0  0  0  0  0
    0.0000    0.0000    0.0000 H   0  0  0  0  0  0  0  0  0  0  0  0
    0.0000    0.0000    0.0000 H   0  0  0  0  0  0  0  0  0  0  0  0
    0.0000    0.0000    0.0000 H   0  0  0  0  0  0  0  0  0  0  0  0
    0.0000    0.0000    0.0000 H   0  0  0  0  0  0  0  0  0  0  0  0
    0.0000    0.0000    0.0000 H   0  0  0  0  0  0  0  0  0  0  0  0
    0.0000    0.0000    0.0000 H   0  0  0  0  0  0  0  0  0  0  0  0
    0.0000    0.0000    0.0000 H   0  0  0  0  0  0  0  0  0  0  0  0
    0.0000    0.0000    0.0000 H   0  0  0  0  0  0  0  0  0  0  0  0
    0.0000    0.0000    0.0000 H   0  0  0  0  0  0  0  0  0  0  0  0
   10.8678    5.1899   10.4893 C   0  0  0  0  0  0  0  0  0  0  0  0
    9.7591    5.9487   10.1802 C   0  0  0  0  0  0  0  0  0  0  0  0
    8.8257    5.4778    9.2644 C   0  0  0  0  0  0  0  0  0  0  0  0
    9.0284    4.2478    8.6762 C   0  0  0  0  0  0  0  0  0  0  0  0
   10.1304    3.4589    8.9631 C   0  0  0  0  0  0  0  0  0  0  0  0
   10.3218    2.2217    8.3629 C   0  0  0  0  0  0  0  0  0  0  0  0
   11.4234    1.4448    8.6564 C   0  0  0  0  0  0  0  0  0  0  0  0
   12.3309    1.9461    9.5725 C   0  0  0  0  0  0  0  0  0  0  0  0
   12.1376    3.1802   10.1695 C   0  0  0  0  0  0  0  0  0  0  0  0
   11.0383    3.9549    9.8761 C   0  0  0  0  0  0  0  0  0  0  0  0
    9.6186    6.9039   10.6484 H   0  0  0  0  0  0  0  0  0  0  0  0
    7.9461    6.0775    9.0177 H   0  0  0  0  0  0  0  0  0  0  0  0
    8.2928    3.8807    7.9569 H   0  0  0  0  0  0  0  0  0  0  0  0
    9.5962    1.8427    7.6432 H   0  0  0  0  0  0  0  0  0  0  0  0
   11.5732    0.4710    8.1836 H   0  0  0  0  0  0  0  0  0  0  0  0
   13.1885    1.3671    9.8163 H   0  0  0  0  0  0  0  0  0  0  0  0
   12.8455    3.5915   10.8961 H   0  0  0  0  0  0  0  0  0  0  0  0
  1  3  2  0
  1  4  1  0
  2  4  1  0
  1  5  1  0
  2  6  1  0
  5  6  1  0
  6  7  2  3
  5  8  1  0
  4 10  1  6
 10 11  2  0
 11 12  1  0
 12 13  2  0
 13 14  1  0
 10 15  1  0
 14 15  2  0
  9 16  2  0
  9 17  1  0
 14 18  1  0
 17 18  2  0
 18 19  1  0
 16 20  1  0
 19 20  2  0
  2 21  1  0
  7 22  1  0
  8 23  1  0
  8 24  1  0
  8 25  1  0
 11 26  1  0
 12 27  1  0
 13 28  1  0
 15 29  1  0
 16 30  1  0
 17 31  1  0
 19 32  1  0
 20 33  1  0
 34 35  2  0
 35 36  1  0
 36 37  2  0
 37 38  1  0
 38 39  2  0
 39 40  1  0
 40 41  2  0
 41 42  1  0
 42 43  2  0
 43 34  1  0
 43 38  1  0
 35 44  1  0
 36 45  1  0
 37 46  1  0
 39 47  1  0
 40 48  1  0
 41 49  1  0
 42 50  1  0
  4 34  1  0
M  END
>  <attachment_point>  (90) 
21

>  <score>  (90) 
<NA>

$$$$
4djw
     RDKit          3D

 45 48  0  0  0  0  0  0  0  0999 V2000
   22.4950   11.8750   22.5810 C   0  0  0  0  0  0  0  0  0  0  0  0
   22.5380    9.4930   22.4640 N   0  0  0  0  0  0  0  0  0  0  0  0
   22.3600   13.0630   22.3480 O   0  0  0  0  0  0  0  0  0  0  0  0
   22.3390   10.6680   21.5610 C   0  0  2  0  0  0  0  0  0  0  0  0
   22.7860   11.3350   23.8120 N   0  0  0  0  0  0  0  0  0  0  0  0
   22.7800    9.9140   23.7010 C   0  0  0  0  0  0  0  0  0  0  0  0
   22.9970    9.1110   24.7490 N   0  0  0  0  0  0  0  0  0  0  0  0
   23.0220   12.1410   25.0180 C   0  0  0  0  0  0  0  0  0  0  0  0
   29.1260    9.8230   21.7090 N   0  0  0  0  0  0  0  0  0  0  0  0
   23.4880   10.6920   20.5300 C   0  0  0  0  0  0  0  0  0  0  0  0
   23.2110   10.7890   19.1730 C   0  0  0  0  0  0  0  0  0  0  0  0
   24.2350   10.8650   18.2430 C   0  0  0  0  0  0  0  0  0  0  0  0
   25.5500   10.8410   18.6560 C   0  0  0  0  0  0  0  0  0  0  0  0
   25.8710   10.7460   20.0070 C   0  0  0  0  0  0  0  0  0  0  0  0
   24.8260   10.6610   20.9430 C   0  0  0  0  0  0  0  0  0  0  0  0
   29.8540   10.9130   21.4510 C   0  0  0  0  0  0  0  0  0  0  0  0
   27.8830    9.7800   21.2080 C   0  0  0  0  0  0  0  0  0  0  0  0
   27.3000   10.8010   20.4650 C   0  0  0  0  0  0  0  0  0  0  0  0
   28.0930   11.9190   20.2200 C   0  0  0  0  0  0  0  0  0  0  0  0
   29.3850   11.9780   20.7130 C   0  0  0  0  0  0  0  0  0  0  0  0
    0.0000    0.0000    0.0000 H   0  0  0  0  0  0  0  0  0  0  0  0
    0.0000    0.0000    0.0000 H   0  0  0  0  0  0  0  0  0  0  0  0
    0.0000    0.0000    0.0000 H   0  0  0  0  0  0  0  0  0  0  0  0
    0.0000    0.0000    0.0000 H   0  0  0  0  0  0  0  0  0  0  0  0
    0.0000    0.0000    0.0000 H   0  0  0  0  0  0  0  0  0  0  0  0
    0.0000    0.0000    0.0000 H   0  0  0  0  0  0  0  0  0  0  0  0
    0.0000    0.0000    0.0000 H   0  0  0  0  0  0  0  0  0  0  0  0
    0.0000    0.0000    0.0000 H   0  0  0  0  0  0  0  0  0  0  0  0
    0.0000    0.0000    0.0000 H   0  0  0  0  0  0  0  0  0  0  0  0
    0.0000    0.0000    0.0000 H   0  0  0  0  0  0  0  0  0  0  0  0
    0.0000    0.0000    0.0000 H   0  0  0  0  0  0  0  0  0  0  0  0
    0.0000    0.0000    0.0000 H   0  0  0  0  0  0  0  0  0  0  0  0
    0.0000    0.0000    0.0000 H   0  0  0  0  0  0  0  0  0  0  0  0
   10.8526    5.1827   10.4747 C   0  0  0  0  0  0  0  0  0  0  0  0
   11.2973    4.8599    9.2590 C   0  0  0  0  0  0  0  0  0  0  0  0
   10.3617    4.4063    8.3354 C   0  0  0  0  0  0  0  0  0  0  0  0
    9.0343    4.3069    8.6973 C   0  0  0  0  0  0  0  0  0  0  0  0
    8.5697    4.6356    9.9414 C   0  0  0  0  0  0  0  0  0  0  0  0
    7.1931    4.5402   10.3402 C   0  0  0  0  0  0  0  0  0  0  0  0
    6.0711    4.4589   10.6447 N   0  0  0  0  0  0  0  0  0  0  0  0
    9.5446    5.0900   10.8476 C   0  0  0  0  0  0  0  0  0  0  0  0
   12.3256    4.9127    8.9042 H   0  0  0  0  0  0  0  0  0  0  0  0
   10.6853    4.1336    7.3344 H   0  0  0  0  0  0  0  0  0  0  0  0
    8.2921    3.9520    7.9796 H   0  0  0  0  0  0  0  0  0  0  0  0
    9.2389    5.3668   11.8521 H   0  0  0  0  0  0  0  0  0  0  0  0
  1  3  2  0
  1  4  1  0
  2  4  1  0
  1  5  1  0
  2  6  1  0
  5  6  1  0
  6  7  2  3
  5  8  1  0
  4 10  1  6
 10 11  2  0
 11 12  1  0
 12 13  2  0
 13 14  1  0
 10 15  1  0
 14 15  2  0
  9 16  2  0
  9 17  1  0
 14 18  1  0
 17 18  2  0
 18 19  1  0
 16 20  1  0
 19 20  2  0
  2 21  1  0
  7 22  1  0
  8 23  1  0
  8 24  1  0
  8 25  1  0
 11 26  1  0
 12 27  1  0
 13 28  1  0
 15 29  1  0
 16 30  1  0
 17 31  1  0
 19 32  1  0
 20 33  1  0
 34 35  2  0
 35 36  1  0
 36 37  2  0
 37 38  1  0
 38 39  1  0
 39 40  3  0
 38 41  2  0
 41 34  1  0
 35 42  1  0
 36 43  1  0
 37 44  1  0
 41 45  1  0
  4 34  1  0
M  END
>  <attachment_point>  (91) 
21

>  <score>  (91) 
<NA>

$$$$
4djw
     RDKit          3D

 44 46  0  0  0  0  0  0  0  0999 V2000
   22.4950   11.8750   22.5810 C   0  0  0  0  0  0  0  0  0  0  0  0
   22.5380    9.4930   22.4640 N   0  0  0  0  0  0  0  0  0  0  0  0
   22.3600   13.0630   22.3480 O   0  0  0  0  0  0  0  0  0  0  0  0
   22.3390   10.6680   21.5610 C   0  0  2  0  0  0  0  0  0  0  0  0
   22.7860   11.3350   23.8120 N   0  0  0  0  0  0  0  0  0  0  0  0
   22.7800    9.9140   23.7010 C   0  0  0  0  0  0  0  0  0  0  0  0
   22.9970    9.1110   24.7490 N   0  0  0  0  0  0  0  0  0  0  0  0
   23.0220   12.1410   25.0180 C   0  0  0  0  0  0  0  0  0  0  0  0
   29.1260    9.8230   21.7090 N   0  0  0  0  0  0  0  0  0  0  0  0
   23.4880   10.6920   20.5300 C   0  0  0  0  0  0  0  0  0  0  0  0
   23.2110   10.7890   19.1730 C   0  0  0  0  0  0  0  0  0  0  0  0
   24.2350   10.8650   18.2430 C   0  0  0  0  0  0  0  0  0  0  0  0
   25.5500   10.8410   18.6560 C   0  0  0  0  0  0  0  0  0  0  0  0
   25.8710   10.7460   20.0070 C   0  0  0  0  0  0  0  0  0  0  0  0
   24.8260   10.6610   20.9430 C   0  0  0  0  0  0  0  0  0  0  0  0
   29.8540   10.9130   21.4510 C   0  0  0  0  0  0  0  0  0  0  0  0
   27.8830    9.7800   21.2080 C   0  0  0  0  0  0  0  0  0  0  0  0
   27.3000   10.8010   20.4650 C   0  0  0  0  0  0  0  0  0  0  0  0
   28.0930   11.9190   20.2200 C   0  0  0  0  0  0  0  0  0  0  0  0
   29.3850   11.9780   20.7130 C   0  0  0  0  0  0  0  0  0  0  0  0
    0.0000    0.0000    0.0000 H   0  0  0  0  0  0  0  0  0  0  0  0
    0.0000    0.0000    0.0000 H   0  0  0  0  0  0  0  0  0  0  0  0
    0.0000    0.0000    0.0000 H   0  0  0  0  0  0  0  0  0  0  0  0
    0.0000    0.0000    0.0000 H   0  0  0  0  0  0  0  0  0  0  0  0
    0.0000    0.0000    0.0000 H   0  0  0  0  0  0  0  0  0  0  0  0
    0.0000    0.0000    0.0000 H   0  0  0  0  0  0  0  0  0  0  0  0
    0.0000    0.0000    0.0000 H   0  0  0  0  0  0  0  0  0  0  0  0
    0.0000    0.0000    0.0000 H   0  0  0  0  0  0  0  0  0  0  0  0
    0.0000    0.0000    0.0000 H   0  0  0  0  0  0  0  0  0  0  0  0
    0.0000    0.0000    0.0000 H   0  0  0  0  0  0  0  0  0  0  0  0
    0.0000    0.0000    0.0000 H   0  0  0  0  0  0  0  0  0  0  0  0
    0.0000    0.0000    0.0000 H   0  0  0  0  0  0  0  0  0  0  0  0
    0.0000    0.0000    0.0000 H   0  0  0  0  0  0  0  0  0  0  0  0
   10.8734    5.1926   10.4947 O   0  0  0  0  0  0  0  0  0  0  0  0
   10.0927    6.3361   10.2064 C   0  0  0  0  0  0  0  0  0  0  0  0
    9.0428    5.8831    9.2075 C   0  0  0  0  0  0  0  0  0  0  0  0
    8.1704    4.8043    9.7345 C   0  0  0  0  0  0  0  0  0  0  0  0
   10.6939    7.1572    9.8192 H   0  0  0  0  0  0  0  0  0  0  0  0
    9.6290    6.6230   11.1667 H   0  0  0  0  0  0  0  0  0  0  0  0
    9.5314    5.5397    8.2713 H   0  0  0  0  0  0  0  0  0  0  0  0
    8.4740    6.8045    8.9181 H   0  0  0  0  0  0  0  0  0  0  0  0
    8.0547    4.8042   10.8442 H   0  0  0  0  0  0  0  0  0  0  0  0
    8.5432    3.7815    9.4784 H   0  0  0  0  0  0  0  0  0  0  0  0
    7.1254    4.8345    9.3338 H   0  0  0  0  0  0  0  0  0  0  0  0
  1  3  2  0
  1  4  1  0
  2  4  1  0
  1  5  1  0
  2  6  1  0
  5  6  1  0
  6  7  2  3
  5  8  1  0
  4 10  1  0
 10 11  2  0
 11 12  1  0
 12 13  2  0
 13 14  1  0
 10 15  1  0
 14 15  2  0
  9 16  2  0
  9 17  1  0
 14 18  1  0
 17 18  2  0
 18 19  1  0
 16 20  1  0
 19 20  2  0
  2 21  1  0
  7 22  1  0
  8 23  1  0
  8 24  1  0
  8 25  1  0
 11 26  1  0
 12 27  1  0
 13 28  1  0
 15 29  1  0
 16 30  1  0
 17 31  1  0
 19 32  1  0
 20 33  1  0
 34 35  1  0
 35 36  1  0
 36 37  1  0
 35 38  1  0
 35 39  1  0
 36 40  1  0
 36 41  1  0
 37 42  1  0
 37 43  1  0
 37 44  1  0
  4 34  1  6
M  END
>  <attachment_point>  (92) 
21

>  <score>  (92) 
<NA>

$$$$
4djw
     RDKit          3D

 48 51  0  0  0  0  0  0  0  0999 V2000
   22.4950   11.8750   22.5810 C   0  0  0  0  0  0  0  0  0  0  0  0
   22.5380    9.4930   22.4640 N   0  0  0  0  0  0  0  0  0  0  0  0
   22.3600   13.0630   22.3480 O   0  0  0  0  0  0  0  0  0  0  0  0
   22.3390   10.6680   21.5610 C   0  0  2  0  0  0  0  0  0  0  0  0
   22.7860   11.3350   23.8120 N   0  0  0  0  0  0  0  0  0  0  0  0
   22.7800    9.9140   23.7010 C   0  0  0  0  0  0  0  0  0  0  0  0
   22.9970    9.1110   24.7490 N   0  0  0  0  0  0  0  0  0  0  0  0
   23.0220   12.1410   25.0180 C   0  0  0  0  0  0  0  0  0  0  0  0
   29.1260    9.8230   21.7090 N   0  0  0  0  0  0  0  0  0  0  0  0
   23.4880   10.6920   20.5300 C   0  0  0  0  0  0  0  0  0  0  0  0
   23.2110   10.7890   19.1730 C   0  0  0  0  0  0  0  0  0  0  0  0
   24.2350   10.8650   18.2430 C   0  0  0  0  0  0  0  0  0  0  0  0
   25.5500   10.8410   18.6560 C   0  0  0  0  0  0  0  0  0  0  0  0
   25.8710   10.7460   20.0070 C   0  0  0  0  0  0  0  0  0  0  0  0
   24.8260   10.6610   20.9430 C   0  0  0  0  0  0  0  0  0  0  0  0
   29.8540   10.9130   21.4510 C   0  0  0  0  0  0  0  0  0  0  0  0
   27.8830    9.7800   21.2080 C   0  0  0  0  0  0  0  0  0  0  0  0
   27.3000   10.8010   20.4650 C   0  0  0  0  0  0  0  0  0  0  0  0
   28.0930   11.9190   20.2200 C   0  0  0  0  0  0  0  0  0  0  0  0
   29.3850   11.9780   20.7130 C   0  0  0  0  0  0  0  0  0  0  0  0
    0.0000    0.0000    0.0000 H   0  0  0  0  0  0  0  0  0  0  0  0
    0.0000    0.0000    0.0000 H   0  0  0  0  0  0  0  0  0  0  0  0
    0.0000    0.0000    0.0000 H   0  0  0  0  0  0  0  0  0  0  0  0
    0.0000    0.0000    0.0000 H   0  0  0  0  0  0  0  0  0  0  0  0
    0.0000    0.0000    0.0000 H   0  0  0  0  0  0  0  0  0  0  0  0
    0.0000    0.0000    0.0000 H   0  0  0  0  0  0  0  0  0  0  0  0
    0.0000    0.0000    0.0000 H   0  0  0  0  0  0  0  0  0  0  0  0
    0.0000    0.0000    0.0000 H   0  0  0  0  0  0  0  0  0  0  0  0
    0.0000    0.0000    0.0000 H   0  0  0  0  0  0  0  0  0  0  0  0
    0.0000    0.0000    0.0000 H   0  0  0  0  0  0  0  0  0  0  0  0
    0.0000    0.0000    0.0000 H   0  0  0  0  0  0  0  0  0  0  0  0
    0.0000    0.0000    0.0000 H   0  0  0  0  0  0  0  0  0  0  0  0
    0.0000    0.0000    0.0000 H   0  0  0  0  0  0  0  0  0  0  0  0
   10.8693    5.1906   10.4908 N   0  0  0  0  0  0  0  0  0  0  0  0
   11.0187    3.9724    9.8298 C   0  0  0  0  0  0  0  0  0  0  0  0
   12.0612    3.2953   10.1022 O   0  0  0  0  0  0  0  0  0  0  0  0
   10.0581    3.4516    8.8641 C   0  0  0  0  0  0  0  0  0  0  0  0
   10.2928    2.2345    8.2605 C   0  0  0  0  0  0  0  0  0  0  0  0
    9.4122    1.7008    7.3401 C   0  0  0  0  0  0  0  0  0  0  0  0
    8.2546    2.3872    6.9967 C   0  0  0  0  0  0  0  0  0  0  0  0
    8.0148    3.6010    7.5947 C   0  0  0  0  0  0  0  0  0  0  0  0
    8.9232    4.1204    8.5248 C   0  0  0  0  0  0  0  0  0  0  0  0
   10.0359    5.7775   10.3015 H   0  0  0  0  0  0  0  0  0  0  0  0
   11.2047    1.6883    8.5276 H   0  0  0  0  0  0  0  0  0  0  0  0
    9.6091    0.7322    6.8666 H   0  0  0  0  0  0  0  0  0  0  0  0
    7.5660    1.9588    6.2699 H   0  0  0  0  0  0  0  0  0  0  0  0
    7.1216    4.1564    7.3458 H   0  0  0  0  0  0  0  0  0  0  0  0
    8.6780    5.0736    8.9565 H   0  0  0  0  0  0  0  0  0  0  0  0
  1  3  2  0
  1  4  1  0
  2  4  1  0
  1  5  1  0
  2  6  1  0
  5  6  1  0
  6  7  2  3
  5  8  1  0
  4 10  1  0
 10 11  2  0
 11 12  1  0
 12 13  2  0
 13 14  1  0
 10 15  1  0
 14 15  2  0
  9 16  2  0
  9 17  1  0
 14 18  1  0
 17 18  2  0
 18 19  1  0
 16 20  1  0
 19 20  2  0
  2 21  1  0
  7 22  1  0
  8 23  1  0
  8 24  1  0
  8 25  1  0
 11 26  1  0
 12 27  1  0
 13 28  1  0
 15 29  1  0
 16 30  1  0
 17 31  1  0
 19 32  1  0
 20 33  1  0
 34 35  1  0
 35 36  2  0
 35 37  1  0
 37 38  2  0
 38 39  1  0
 39 40  2  0
 40 41  1  0
 41 42  2  0
 42 37  1  0
 34 43  1  0
 38 44  1  0
 39 45  1  0
 40 46  1  0
 41 47  1  0
 42 48  1  0
  4 34  1  6
M  END
>  <attachment_point>  (93) 
21

>  <score>  (93) 
<NA>

$$$$
4djw
     RDKit          3D

 44 47  0  0  0  0  0  0  0  0999 V2000
   22.4950   11.8750   22.5810 C   0  0  0  0  0  0  0  0  0  0  0  0
   22.5380    9.4930   22.4640 N   0  0  0  0  0  0  0  0  0  0  0  0
   22.3600   13.0630   22.3480 O   0  0  0  0  0  0  0  0  0  0  0  0
   22.3390   10.6680   21.5610 C   0  0  2  0  0  0  0  0  0  0  0  0
   22.7860   11.3350   23.8120 N   0  0  0  0  0  0  0  0  0  0  0  0
   22.7800    9.9140   23.7010 C   0  0  0  0  0  0  0  0  0  0  0  0
   22.9970    9.1110   24.7490 N   0  0  0  0  0  0  0  0  0  0  0  0
   23.0220   12.1410   25.0180 C   0  0  0  0  0  0  0  0  0  0  0  0
   29.1260    9.8230   21.7090 N   0  0  0  0  0  0  0  0  0  0  0  0
   23.4880   10.6920   20.5300 C   0  0  0  0  0  0  0  0  0  0  0  0
   23.2110   10.7890   19.1730 C   0  0  0  0  0  0  0  0  0  0  0  0
   24.2350   10.8650   18.2430 C   0  0  0  0  0  0  0  0  0  0  0  0
   25.5500   10.8410   18.6560 C   0  0  0  0  0  0  0  0  0  0  0  0
   25.8710   10.7460   20.0070 C   0  0  0  0  0  0  0  0  0  0  0  0
   24.8260   10.6610   20.9430 C   0  0  0  0  0  0  0  0  0  0  0  0
   29.8540   10.9130   21.4510 C   0  0  0  0  0  0  0  0  0  0  0  0
   27.8830    9.7800   21.2080 C   0  0  0  0  0  0  0  0  0  0  0  0
   27.3000   10.8010   20.4650 C   0  0  0  0  0  0  0  0  0  0  0  0
   28.0930   11.9190   20.2200 C   0  0  0  0  0  0  0  0  0  0  0  0
   29.3850   11.9780   20.7130 C   0  0  0  0  0  0  0  0  0  0  0  0
    0.0000    0.0000    0.0000 H   0  0  0  0  0  0  0  0  0  0  0  0
    0.0000    0.0000    0.0000 H   0  0  0  0  0  0  0  0  0  0  0  0
    0.0000    0.0000    0.0000 H   0  0  0  0  0  0  0  0  0  0  0  0
    0.0000    0.0000    0.0000 H   0  0  0  0  0  0  0  0  0  0  0  0
    0.0000    0.0000    0.0000 H   0  0  0  0  0  0  0  0  0  0  0  0
    0.0000    0.0000    0.0000 H   0  0  0  0  0  0  0  0  0  0  0  0
    0.0000    0.0000    0.0000 H   0  0  0  0  0  0  0  0  0  0  0  0
    0.0000    0.0000    0.0000 H   0  0  0  0  0  0  0  0  0  0  0  0
    0.0000    0.0000    0.0000 H   0  0  0  0  0  0  0  0  0  0  0  0
    0.0000    0.0000    0.0000 H   0  0  0  0  0  0  0  0  0  0  0  0
    0.0000    0.0000    0.0000 H   0  0  0  0  0  0  0  0  0  0  0  0
    0.0000    0.0000    0.0000 H   0  0  0  0  0  0  0  0  0  0  0  0
    0.0000    0.0000    0.0000 H   0  0  0  0  0  0  0  0  0  0  0  0
   10.8375    5.1754   10.4600 C   0  0  0  0  0  0  0  0  0  0  0  0
    9.5077    5.2838   10.5931 C   0  0  0  0  0  0  0  0  0  0  0  0
    8.9810    4.7109    9.4720 N   0  0  0  0  0  0  0  0  0  0  0  0
    9.9158    4.2628    8.6697 N   0  0  0  0  0  0  0  0  0  0  0  0
    9.8043    3.5929    7.3868 C   0  0  0  0  0  0  0  0  0  0  0  0
   11.0986    4.5564    9.2946 C   0  0  0  0  0  0  0  0  0  0  0  0
    8.8910    5.7147   11.3802 H   0  0  0  0  0  0  0  0  0  0  0  0
    9.2806    2.6218    7.4585 H   0  0  0  0  0  0  0  0  0  0  0  0
   10.7874    3.5246    6.9159 H   0  0  0  0  0  0  0  0  0  0  0  0
    9.1462    4.2424    6.7382 H   0  0  0  0  0  0  0  0  0  0  0  0
   12.0814    4.3205    8.8992 H   0  0  0  0  0  0  0  0  0  0  0  0
  1  3  2  0
  1  4  1  0
  2  4  1  0
  1  5  1  0
  2  6  1  0
  5  6  1  0
  6  7  2  3
  5  8  1  0
  4 10  1  6
 10 11  2  0
 11 12  1  0
 12 13  2  0
 13 14  1  0
 10 15  1  0
 14 15  2  0
  9 16  2  0
  9 17  1  0
 14 18  1  0
 17 18  2  0
 18 19  1  0
 16 20  1  0
 19 20  2  0
  2 21  1  0
  7 22  1  0
  8 23  1  0
  8 24  1  0
  8 25  1  0
 11 26  1  0
 12 27  1  0
 13 28  1  0
 15 29  1  0
 16 30  1  0
 17 31  1  0
 19 32  1  0
 20 33  1  0
 34 35  1  0
 35 36  2  0
 36 37  1  0
 37 38  1  0
 37 39  1  0
 39 34  2  0
 35 40  1  0
 38 41  1  0
 38 42  1  0
 38 43  1  0
 39 44  1  0
  4 34  1  0
M  END
>  <attachment_point>  (94) 
21

>  <score>  (94) 
<NA>

$$$$
4djw
     RDKit          3D

 51 54  0  0  0  0  0  0  0  0999 V2000
   22.4950   11.8750   22.5810 C   0  0  0  0  0  0  0  0  0  0  0  0
   22.5380    9.4930   22.4640 N   0  0  0  0  0  0  0  0  0  0  0  0
   22.3600   13.0630   22.3480 O   0  0  0  0  0  0  0  0  0  0  0  0
   22.3390   10.6680   21.5610 C   0  0  2  0  0  0  0  0  0  0  0  0
   22.7860   11.3350   23.8120 N   0  0  0  0  0  0  0  0  0  0  0  0
   22.7800    9.9140   23.7010 C   0  0  0  0  0  0  0  0  0  0  0  0
   22.9970    9.1110   24.7490 N   0  0  0  0  0  0  0  0  0  0  0  0
   23.0220   12.1410   25.0180 C   0  0  0  0  0  0  0  0  0  0  0  0
   29.1260    9.8230   21.7090 N   0  0  0  0  0  0  0  0  0  0  0  0
   23.4880   10.6920   20.5300 C   0  0  0  0  0  0  0  0  0  0  0  0
   23.2110   10.7890   19.1730 C   0  0  0  0  0  0  0  0  0  0  0  0
   24.2350   10.8650   18.2430 C   0  0  0  0  0  0  0  0  0  0  0  0
   25.5500   10.8410   18.6560 C   0  0  0  0  0  0  0  0  0  0  0  0
   25.8710   10.7460   20.0070 C   0  0  0  0  0  0  0  0  0  0  0  0
   24.8260   10.6610   20.9430 C   0  0  0  0  0  0  0  0  0  0  0  0
   29.8540   10.9130   21.4510 C   0  0  0  0  0  0  0  0  0  0  0  0
   27.8830    9.7800   21.2080 C   0  0  0  0  0  0  0  0  0  0  0  0
   27.3000   10.8010   20.4650 C   0  0  0  0  0  0  0  0  0  0  0  0
   28.0930   11.9190   20.2200 C   0  0  0  0  0  0  0  0  0  0  0  0
   29.3850   11.9780   20.7130 C   0  0  0  0  0  0  0  0  0  0  0  0
    0.0000    0.0000    0.0000 H   0  0  0  0  0  0  0  0  0  0  0  0
    0.0000    0.0000    0.0000 H   0  0  0  0  0  0  0  0  0  0  0  0
    0.0000    0.0000    0.0000 H   0  0  0  0  0  0  0  0  0  0  0  0
    0.0000    0.0000    0.0000 H   0  0  0  0  0  0  0  0  0  0  0  0
    0.0000    0.0000    0.0000 H   0  0  0  0  0  0  0  0  0  0  0  0
    0.0000    0.0000    0.0000 H   0  0  0  0  0  0  0  0  0  0  0  0
    0.0000    0.0000    0.0000 H   0  0  0  0  0  0  0  0  0  0  0  0
    0.0000    0.0000    0.0000 H   0  0  0  0  0  0  0  0  0  0  0  0
    0.0000    0.0000    0.0000 H   0  0  0  0  0  0  0  0  0  0  0  0
    0.0000    0.0000    0.0000 H   0  0  0  0  0  0  0  0  0  0  0  0
    0.0000    0.0000    0.0000 H   0  0  0  0  0  0  0  0  0  0  0  0
    0.0000    0.0000    0.0000 H   0  0  0  0  0  0  0  0  0  0  0  0
    0.0000    0.0000    0.0000 H   0  0  0  0  0  0  0  0  0  0  0  0
   10.8441    5.1786   10.4664 C   0  0  0  0  0  0  0  0  0  0  0  0
   11.2044    4.4096    9.5754 O   0  0  0  0  0  0  0  0  0  0  0  0
    9.5521    5.6650   10.6753 N   0  0  0  0  0  0  0  0  0  0  0  0
    8.4580    5.2998    9.8359 C   0  0  0  0  0  0  0  0  0  0  0  0
    7.9400    3.9286   10.0985 C   0  0  0  0  0  0  0  0  0  0  0  0
    6.9801    3.8315   11.1122 C   0  0  0  0  0  0  0  0  0  0  0  0
    6.4508    2.5930   11.4066 C   0  0  0  0  0  0  0  0  0  0  0  0
    6.8789    1.4915   10.6989 C   0  0  0  0  0  0  0  0  0  0  0  0
    7.8268    1.5934    9.6990 C   0  0  0  0  0  0  0  0  0  0  0  0
    8.3554    2.8359    9.4060 C   0  0  0  0  0  0  0  0  0  0  0  0
    9.3861    6.3136   11.4666 H   0  0  0  0  0  0  0  0  0  0  0  0
    7.5887    5.9852    9.8983 H   0  0  0  0  0  0  0  0  0  0  0  0
    8.8214    5.2831    8.7701 H   0  0  0  0  0  0  0  0  0  0  0  0
    6.6464    4.6976   11.6663 H   0  0  0  0  0  0  0  0  0  0  0  0
    5.7081    2.4852   12.1861 H   0  0  0  0  0  0  0  0  0  0  0  0
    6.4587    0.5204   10.9362 H   0  0  0  0  0  0  0  0  0  0  0  0
    8.1837    0.7417    9.1239 H   0  0  0  0  0  0  0  0  0  0  0  0
    9.0960    2.9677    8.6312 H   0  0  0  0  0  0  0  0  0  0  0  0
  1  3  2  0
  1  4  1  0
  2  4  1  0
  1  5  1  0
  2  6  1  0
  5  6  1  0
  6  7  2  3
  5  8  1  0
  4 10  1  0
 10 11  2  0
 11 12  1  0
 12 13  2  0
 13 14  1  0
 10 15  1  0
 14 15  2  0
  9 16  2  0
  9 17  1  0
 14 18  1  0
 17 18  2  0
 18 19  1  0
 16 20  1  0
 19 20  2  0
  2 21  1  0
  7 22  1  0
  8 23  1  0
  8 24  1  0
  8 25  1  0
 11 26  1  0
 12 27  1  0
 13 28  1  0
 15 29  1  0
 16 30  1  0
 17 31  1  0
 19 32  1  0
 20 33  1  0
 34 35  2  0
 34 36  1  0
 36 37  1  0
 37 38  1  0
 38 39  2  0
 39 40  1  0
 40 41  2  0
 41 42  1  0
 42 43  2  0
 43 38  1  0
 36 44  1  0
 37 45  1  0
 37 46  1  0
 39 47  1  0
 40 48  1  0
 41 49  1  0
 42 50  1  0
 43 51  1  0
  4 34  1  6
M  END
>  <attachment_point>  (95) 
21

>  <score>  (95) 
<NA>

$$$$
4djw
     RDKit          3D

 41 44  0  0  0  0  0  0  0  0999 V2000
   22.4950   11.8750   22.5810 C   0  0  0  0  0  0  0  0  0  0  0  0
   22.5380    9.4930   22.4640 N   0  0  0  0  0  0  0  0  0  0  0  0
   22.3600   13.0630   22.3480 O   0  0  0  0  0  0  0  0  0  0  0  0
   22.3390   10.6680   21.5610 C   0  0  2  0  0  0  0  0  0  0  0  0
   22.7860   11.3350   23.8120 N   0  0  0  0  0  0  0  0  0  0  0  0
   22.7800    9.9140   23.7010 C   0  0  0  0  0  0  0  0  0  0  0  0
   22.9970    9.1110   24.7490 N   0  0  0  0  0  0  0  0  0  0  0  0
   23.0220   12.1410   25.0180 C   0  0  0  0  0  0  0  0  0  0  0  0
   29.1260    9.8230   21.7090 N   0  0  0  0  0  0  0  0  0  0  0  0
   23.4880   10.6920   20.5300 C   0  0  0  0  0  0  0  0  0  0  0  0
   23.2110   10.7890   19.1730 C   0  0  0  0  0  0  0  0  0  0  0  0
   24.2350   10.8650   18.2430 C   0  0  0  0  0  0  0  0  0  0  0  0
   25.5500   10.8410   18.6560 C   0  0  0  0  0  0  0  0  0  0  0  0
   25.8710   10.7460   20.0070 C   0  0  0  0  0  0  0  0  0  0  0  0
   24.8260   10.6610   20.9430 C   0  0  0  0  0  0  0  0  0  0  0  0
   29.8540   10.9130   21.4510 C   0  0  0  0  0  0  0  0  0  0  0  0
   27.8830    9.7800   21.2080 C   0  0  0  0  0  0  0  0  0  0  0  0
   27.3000   10.8010   20.4650 C   0  0  0  0  0  0  0  0  0  0  0  0
   28.0930   11.9190   20.2200 C   0  0  0  0  0  0  0  0  0  0  0  0
   29.3850   11.9780   20.7130 C   0  0  0  0  0  0  0  0  0  0  0  0
    0.0000    0.0000    0.0000 H   0  0  0  0  0  0  0  0  0  0  0  0
    0.0000    0.0000    0.0000 H   0  0  0  0  0  0  0  0  0  0  0  0
    0.0000    0.0000    0.0000 H   0  0  0  0  0  0  0  0  0  0  0  0
    0.0000    0.0000    0.0000 H   0  0  0  0  0  0  0  0  0  0  0  0
    0.0000    0.0000    0.0000 H   0  0  0  0  0  0  0  0  0  0  0  0
    0.0000    0.0000    0.0000 H   0  0  0  0  0  0  0  0  0  0  0  0
    0.0000    0.0000    0.0000 H   0  0  0  0  0  0  0  0  0  0  0  0
    0.0000    0.0000    0.0000 H   0  0  0  0  0  0  0  0  0  0  0  0
    0.0000    0.0000    0.0000 H   0  0  0  0  0  0  0  0  0  0  0  0
    0.0000    0.0000    0.0000 H   0  0  0  0  0  0  0  0  0  0  0  0
    0.0000    0.0000    0.0000 H   0  0  0  0  0  0  0  0  0  0  0  0
    0.0000    0.0000    0.0000 H   0  0  0  0  0  0  0  0  0  0  0  0
    0.0000    0.0000    0.0000 H   0  0  0  0  0  0  0  0  0  0  0  0
   10.8527    5.1827   10.4747 N   0  0  0  0  0  0  0  0  0  0  0  0
   11.2348    4.7656    9.2885 C   0  0  0  0  0  0  0  0  0  0  0  0
   10.0336    4.3936    8.6522 C   0  0  0  0  0  0  0  0  0  0  0  0
    9.0185    4.6138    9.5007 N   0  0  0  0  0  0  0  0  0  0  0  0
    9.5637    5.1057   10.6273 C   0  0  0  0  0  0  0  0  0  0  0  0
   12.2399    4.7203    8.8966 H   0  0  0  0  0  0  0  0  0  0  0  0
   10.0062    4.0035    7.6482 H   0  0  0  0  0  0  0  0  0  0  0  0
    9.0041    5.3865   11.5082 H   0  0  0  0  0  0  0  0  0  0  0  0
  1  3  2  0
  1  4  1  0
  2  4  1  0
  1  5  1  0
  2  6  1  0
  5  6  1  0
  6  7  2  3
  5  8  1  0
  4 10  1  0
 10 11  2  0
 11 12  1  0
 12 13  2  0
 13 14  1  0
 10 15  1  0
 14 15  2  0
  9 16  2  0
  9 17  1  0
 14 18  1  0
 17 18  2  0
 18 19  1  0
 16 20  1  0
 19 20  2  0
  2 21  1  0
  7 22  1  0
  8 23  1  0
  8 24  1  0
  8 25  1  0
 11 26  1  0
 12 27  1  0
 13 28  1  0
 15 29  1  0
 16 30  1  0
 17 31  1  0
 19 32  1  0
 20 33  1  0
 34 35  1  0
 35 36  2  0
 36 37  1  0
 37 38  2  0
 38 34  1  0
 35 39  1  0
 36 40  1  0
 38 41  1  0
  4 34  1  6
M  END
>  <attachment_point>  (96) 
21

>  <score>  (96) 
<NA>

$$$$
4djw
     RDKit          3D

 45 47  0  0  0  0  0  0  0  0999 V2000
   22.4950   11.8750   22.5810 C   0  0  0  0  0  0  0  0  0  0  0  0
   22.5380    9.4930   22.4640 N   0  0  0  0  0  0  0  0  0  0  0  0
   22.3600   13.0630   22.3480 O   0  0  0  0  0  0  0  0  0  0  0  0
   22.3390   10.6680   21.5610 C   0  0  2  0  0  0  0  0  0  0  0  0
   22.7860   11.3350   23.8120 N   0  0  0  0  0  0  0  0  0  0  0  0
   22.7800    9.9140   23.7010 C   0  0  0  0  0  0  0  0  0  0  0  0
   22.9970    9.1110   24.7490 N   0  0  0  0  0  0  0  0  0  0  0  0
   23.0220   12.1410   25.0180 C   0  0  0  0  0  0  0  0  0  0  0  0
   29.1260    9.8230   21.7090 N   0  0  0  0  0  0  0  0  0  0  0  0
   23.4880   10.6920   20.5300 C   0  0  0  0  0  0  0  0  0  0  0  0
   23.2110   10.7890   19.1730 C   0  0  0  0  0  0  0  0  0  0  0  0
   24.2350   10.8650   18.2430 C   0  0  0  0  0  0  0  0  0  0  0  0
   25.5500   10.8410   18.6560 C   0  0  0  0  0  0  0  0  0  0  0  0
   25.8710   10.7460   20.0070 C   0  0  0  0  0  0  0  0  0  0  0  0
   24.8260   10.6610   20.9430 C   0  0  0  0  0  0  0  0  0  0  0  0
   29.8540   10.9130   21.4510 C   0  0  0  0  0  0  0  0  0  0  0  0
   27.8830    9.7800   21.2080 C   0  0  0  0  0  0  0  0  0  0  0  0
   27.3000   10.8010   20.4650 C   0  0  0  0  0  0  0  0  0  0  0  0
   28.0930   11.9190   20.2200 C   0  0  0  0  0  0  0  0  0  0  0  0
   29.3850   11.9780   20.7130 C   0  0  0  0  0  0  0  0  0  0  0  0
    0.0000    0.0000    0.0000 H   0  0  0  0  0  0  0  0  0  0  0  0
    0.0000    0.0000    0.0000 H   0  0  0  0  0  0  0  0  0  0  0  0
    0.0000    0.0000    0.0000 H   0  0  0  0  0  0  0  0  0  0  0  0
    0.0000    0.0000    0.0000 H   0  0  0  0  0  0  0  0  0  0  0  0
    0.0000    0.0000    0.0000 H   0  0  0  0  0  0  0  0  0  0  0  0
    0.0000    0.0000    0.0000 H   0  0  0  0  0  0  0  0  0  0  0  0
    0.0000    0.0000    0.0000 H   0  0  0  0  0  0  0  0  0  0  0  0
    0.0000    0.0000    0.0000 H   0  0  0  0  0  0  0  0  0  0  0  0
    0.0000    0.0000    0.0000 H   0  0  0  0  0  0  0  0  0  0  0  0
    0.0000    0.0000    0.0000 H   0  0  0  0  0  0  0  0  0  0  0  0
    0.0000    0.0000    0.0000 H   0  0  0  0  0  0  0  0  0  0  0  0
    0.0000    0.0000    0.0000 H   0  0  0  0  0  0  0  0  0  0  0  0
    0.0000    0.0000    0.0000 H   0  0  0  0  0  0  0  0  0  0  0  0
   10.8858    5.1985   10.5067 N   0  0  0  0  0  0  0  0  0  0  0  0
   10.5479    6.2604    9.5826 C   0  0  0  0  0  0  0  0  0  0  0  0
   11.8045    6.6665    8.8642 C   0  0  0  0  0  0  0  0  0  0  0  0
    9.9765    7.4710   10.2614 C   0  0  0  0  0  0  0  0  0  0  0  0
   10.0542    4.8389   11.0232 H   0  0  0  0  0  0  0  0  0  0  0  0
    9.8503    5.8234    8.8387 H   0  0  0  0  0  0  0  0  0  0  0  0
   12.2989    7.5144    9.4058 H   0  0  0  0  0  0  0  0  0  0  0  0
   12.5536    5.8505    8.8449 H   0  0  0  0  0  0  0  0  0  0  0  0
   11.5327    7.0459    7.8696 H   0  0  0  0  0  0  0  0  0  0  0  0
   10.7790    8.2071   10.5198 H   0  0  0  0  0  0  0  0  0  0  0  0
    9.4144    7.2542   11.1760 H   0  0  0  0  0  0  0  0  0  0  0  0
    9.3426    7.9985    9.4916 H   0  0  0  0  0  0  0  0  0  0  0  0
  1  3  2  0
  1  4  1  0
  2  4  1  0
  1  5  1  0
  2  6  1  0
  5  6  1  0
  6  7  2  3
  5  8  1  0
  4 10  1  0
 10 11  2  0
 11 12  1  0
 12 13  2  0
 13 14  1  0
 10 15  1  0
 14 15  2  0
  9 16  2  0
  9 17  1  0
 14 18  1  0
 17 18  2  0
 18 19  1  0
 16 20  1  0
 19 20  2  0
  2 21  1  0
  7 22  1  0
  8 23  1  0
  8 24  1  0
  8 25  1  0
 11 26  1  0
 12 27  1  0
 13 28  1  0
 15 29  1  0
 16 30  1  0
 17 31  1  0
 19 32  1  0
 20 33  1  0
 34 35  1  0
 35 36  1  0
 35 37  1  0
 34 38  1  0
 35 39  1  0
 36 40  1  0
 36 41  1  0
 36 42  1  0
 37 43  1  0
 37 44  1  0
 37 45  1  0
  4 34  1  6
M  END
>  <attachment_point>  (97) 
21

>  <score>  (97) 
<NA>

$$$$
4djw
     RDKit          3D

 47 51  0  0  0  0  0  0  0  0999 V2000
   22.4950   11.8750   22.5810 C   0  0  0  0  0  0  0  0  0  0  0  0
   22.5380    9.4930   22.4640 N   0  0  0  0  0  0  0  0  0  0  0  0
   22.3600   13.0630   22.3480 O   0  0  0  0  0  0  0  0  0  0  0  0
   22.3390   10.6680   21.5610 C   0  0  2  0  0  0  0  0  0  0  0  0
   22.7860   11.3350   23.8120 N   0  0  0  0  0  0  0  0  0  0  0  0
   22.7800    9.9140   23.7010 C   0  0  0  0  0  0  0  0  0  0  0  0
   22.9970    9.1110   24.7490 N   0  0  0  0  0  0  0  0  0  0  0  0
   23.0220   12.1410   25.0180 C   0  0  0  0  0  0  0  0  0  0  0  0
   29.1260    9.8230   21.7090 N   0  0  0  0  0  0  0  0  0  0  0  0
   23.4880   10.6920   20.5300 C   0  0  0  0  0  0  0  0  0  0  0  0
   23.2110   10.7890   19.1730 C   0  0  0  0  0  0  0  0  0  0  0  0
   24.2350   10.8650   18.2430 C   0  0  0  0  0  0  0  0  0  0  0  0
   25.5500   10.8410   18.6560 C   0  0  0  0  0  0  0  0  0  0  0  0
   25.8710   10.7460   20.0070 C   0  0  0  0  0  0  0  0  0  0  0  0
   24.8260   10.6610   20.9430 C   0  0  0  0  0  0  0  0  0  0  0  0
   29.8540   10.9130   21.4510 C   0  0  0  0  0  0  0  0  0  0  0  0
   27.8830    9.7800   21.2080 C   0  0  0  0  0  0  0  0  0  0  0  0
   27.3000   10.8010   20.4650 C   0  0  0  0  0  0  0  0  0  0  0  0
   28.0930   11.9190   20.2200 C   0  0  0  0  0  0  0  0  0  0  0  0
   29.3850   11.9780   20.7130 C   0  0  0  0  0  0  0  0  0  0  0  0
    0.0000    0.0000    0.0000 H   0  0  0  0  0  0  0  0  0  0  0  0
    0.0000    0.0000    0.0000 H   0  0  0  0  0  0  0  0  0  0  0  0
    0.0000    0.0000    0.0000 H   0  0  0  0  0  0  0  0  0  0  0  0
    0.0000    0.0000    0.0000 H   0  0  0  0  0  0  0  0  0  0  0  0
    0.0000    0.0000    0.0000 H   0  0  0  0  0  0  0  0  0  0  0  0
    0.0000    0.0000    0.0000 H   0  0  0  0  0  0  0  0  0  0  0  0
    0.0000    0.0000    0.0000 H   0  0  0  0  0  0  0  0  0  0  0  0
    0.0000    0.0000    0.0000 H   0  0  0  0  0  0  0  0  0  0  0  0
    0.0000    0.0000    0.0000 H   0  0  0  0  0  0  0  0  0  0  0  0
    0.0000    0.0000    0.0000 H   0  0  0  0  0  0  0  0  0  0  0  0
    0.0000    0.0000    0.0000 H   0  0  0  0  0  0  0  0  0  0  0  0
    0.0000    0.0000    0.0000 H   0  0  0  0  0  0  0  0  0  0  0  0
    0.0000    0.0000    0.0000 H   0  0  0  0  0  0  0  0  0  0  0  0
   10.8609    5.1866   10.4826 C   0  0  0  0  0  0  0  0  0  0  0  0
   10.6242    3.8585   10.2863 C   0  0  0  0  0  0  0  0  0  0  0  0
    9.6581    3.4912    9.3512 C   0  0  0  0  0  0  0  0  0  0  0  0
    8.9387    4.4016    8.6237 C   0  0  0  0  0  0  0  0  0  0  0  0
    9.1875    5.7368    8.8318 C   0  0  0  0  0  0  0  0  0  0  0  0
   10.1550    6.1223    9.7677 C   0  0  0  0  0  0  0  0  0  0  0  0
    8.3451    6.4397    7.9895 O   0  0  0  0  0  0  0  0  0  0  0  0
    7.6523    5.5265    7.1338 C   0  0  0  0  0  0  0  0  0  0  0  0
    7.9506    4.2470    7.6616 O   0  0  0  0  0  0  0  0  0  0  0  0
   11.1853    3.1463   10.8537 H   0  0  0  0  0  0  0  0  0  0  0  0
    9.4708    2.4544    9.1954 H   0  0  0  0  0  0  0  0  0  0  0  0
   10.3364    7.1684    9.9174 H   0  0  0  0  0  0  0  0  0  0  0  0
    8.0610    5.6680    6.1071 H   0  0  0  0  0  0  0  0  0  0  0  0
    6.5586    5.7126    7.1360 H   0  0  0  0  0  0  0  0  0  0  0  0
  1  3  2  0
  1  4  1  0
  2  4  1  0
  1  5  1  0
  2  6  1  0
  5  6  1  0
  6  7  2  3
  5  8  1  0
  4 10  1  6
 10 11  2  0
 11 12  1  0
 12 13  2  0
 13 14  1  0
 10 15  1  0
 14 15  2  0
  9 16  2  0
  9 17  1  0
 14 18  1  0
 17 18  2  0
 18 19  1  0
 16 20  1  0
 19 20  2  0
  2 21  1  0
  7 22  1  0
  8 23  1  0
  8 24  1  0
  8 25  1  0
 11 26  1  0
 12 27  1  0
 13 28  1  0
 15 29  1  0
 16 30  1  0
 17 31  1  0
 19 32  1  0
 20 33  1  0
 34 35  2  0
 35 36  1  0
 36 37  2  0
 37 38  1  0
 38 39  2  0
 38 40  1  0
 40 41  1  0
 41 42  1  0
 39 34  1  0
 42 37  1  0
 35 43  1  0
 36 44  1  0
 39 45  1  0
 41 46  1  0
 41 47  1  0
  4 34  1  0
M  END
>  <attachment_point>  (98) 
21

>  <score>  (98) 
<NA>

$$$$
4djw
     RDKit          3D

 49 52  0  0  0  0  0  0  0  0999 V2000
   22.4950   11.8750   22.5810 C   0  0  0  0  0  0  0  0  0  0  0  0
   22.5380    9.4930   22.4640 N   0  0  0  0  0  0  0  0  0  0  0  0
   22.3600   13.0630   22.3480 O   0  0  0  0  0  0  0  0  0  0  0  0
   22.3390   10.6680   21.5610 C   0  0  2  0  0  0  0  0  0  0  0  0
   22.7860   11.3350   23.8120 N   0  0  0  0  0  0  0  0  0  0  0  0
   22.7800    9.9140   23.7010 C   0  0  0  0  0  0  0  0  0  0  0  0
   22.9970    9.1110   24.7490 N   0  0  0  0  0  0  0  0  0  0  0  0
   23.0220   12.1410   25.0180 C   0  0  0  0  0  0  0  0  0  0  0  0
   29.1260    9.8230   21.7090 N   0  0  0  0  0  0  0  0  0  0  0  0
   23.4880   10.6920   20.5300 C   0  0  0  0  0  0  0  0  0  0  0  0
   23.2110   10.7890   19.1730 C   0  0  0  0  0  0  0  0  0  0  0  0
   24.2350   10.8650   18.2430 C   0  0  0  0  0  0  0  0  0  0  0  0
   25.5500   10.8410   18.6560 C   0  0  0  0  0  0  0  0  0  0  0  0
   25.8710   10.7460   20.0070 C   0  0  0  0  0  0  0  0  0  0  0  0
   24.8260   10.6610   20.9430 C   0  0  0  0  0  0  0  0  0  0  0  0
   29.8540   10.9130   21.4510 C   0  0  0  0  0  0  0  0  0  0  0  0
   27.8830    9.7800   21.2080 C   0  0  0  0  0  0  0  0  0  0  0  0
   27.3000   10.8010   20.4650 C   0  0  0  0  0  0  0  0  0  0  0  0
   28.0930   11.9190   20.2200 C   0  0  0  0  0  0  0  0  0  0  0  0
   29.3850   11.9780   20.7130 C   0  0  0  0  0  0  0  0  0  0  0  0
    0.0000    0.0000    0.0000 H   0  0  0  0  0  0  0  0  0  0  0  0
    0.0000    0.0000    0.0000 H   0  0  0  0  0  0  0  0  0  0  0  0
    0.0000    0.0000    0.0000 H   0  0  0  0  0  0  0  0  0  0  0  0
    0.0000    0.0000    0.0000 H   0  0  0  0  0  0  0  0  0  0  0  0
    0.0000    0.0000    0.0000 H   0  0  0  0  0  0  0  0  0  0  0  0
    0.0000    0.0000    0.0000 H   0  0  0  0  0  0  0  0  0  0  0  0
    0.0000    0.0000    0.0000 H   0  0  0  0  0  0  0  0  0  0  0  0
    0.0000    0.0000    0.0000 H   0  0  0  0  0  0  0  0  0  0  0  0
    0.0000    0.0000    0.0000 H   0  0  0  0  0  0  0  0  0  0  0  0
    0.0000    0.0000    0.0000 H   0  0  0  0  0  0  0  0  0  0  0  0
    0.0000    0.0000    0.0000 H   0  0  0  0  0  0  0  0  0  0  0  0
    0.0000    0.0000    0.0000 H   0  0  0  0  0  0  0  0  0  0  0  0
    0.0000    0.0000    0.0000 H   0  0  0  0  0  0  0  0  0  0  0  0
   10.8778    5.1947   10.4990 C   0  0  0  0  0  0  0  0  0  0  0  0
   10.8363    3.7584   10.6603 N   0  0  0  0  0  0  0  0  0  0  0  0
   12.1656    3.2584   10.3685 C   0  0  0  0  0  0  0  0  0  0  0  0
   12.9665    3.7991   11.5292 C   0  0  0  0  0  0  0  0  0  0  0  0
   12.0361    3.6180   12.6979 C   0  0  0  0  0  0  0  0  0  0  0  0
   10.6824    3.3973   12.0581 C   0  0  0  0  0  0  0  0  0  0  0  0
    9.8874    5.6452   10.6522 H   0  0  0  0  0  0  0  0  0  0  0  0
   11.2128    5.4888    9.4830 H   0  0  0  0  0  0  0  0  0  0  0  0
   12.1279    2.1641   10.3459 H   0  0  0  0  0  0  0  0  0  0  0  0
   12.5527    3.6399    9.4144 H   0  0  0  0  0  0  0  0  0  0  0  0
   13.2573    4.8408   11.3523 H   0  0  0  0  0  0  0  0  0  0  0  0
   13.8830    3.1818   11.6035 H   0  0  0  0  0  0  0  0  0  0  0  0
   12.3880    2.7289   13.2631 H   0  0  0  0  0  0  0  0  0  0  0  0
   11.9612    4.4767   13.3580 H   0  0  0  0  0  0  0  0  0  0  0  0
    9.9059    4.0622   12.4854 H   0  0  0  0  0  0  0  0  0  0  0  0
   10.4314    2.3426   12.1802 H   0  0  0  0  0  0  0  0  0  0  0  0
  1  3  2  0
  1  4  1  0
  2  4  1  0
  1  5  1  0
  2  6  1  0
  5  6  1  0
  6  7  2  3
  5  8  1  0
  4 10  1  0
 10 11  2  0
 11 12  1  0
 12 13  2  0
 13 14  1  0
 10 15  1  0
 14 15  2  0
  9 16  2  0
  9 17  1  0
 14 18  1  0
 17 18  2  0
 18 19  1  0
 16 20  1  0
 19 20  2  0
  2 21  1  0
  7 22  1  0
  8 23  1  0
  8 24  1  0
  8 25  1  0
 11 26  1  0
 12 27  1  0
 13 28  1  0
 15 29  1  0
 16 30  1  0
 17 31  1  0
 19 32  1  0
 20 33  1  0
 34 35  1  0
 35 36  1  0
 36 37  1  0
 37 38  1  0
 38 39  1  0
 39 35  1  0
 34 40  1  0
 34 41  1  0
 36 42  1  0
 36 43  1  0
 37 44  1  0
 37 45  1  0
 38 46  1  0
 38 47  1  0
 39 48  1  0
 39 49  1  0
  4 34  1  6
M  END
>  <attachment_point>  (99) 
21

>  <score>  (99) 
<NA>

$$$$
4djw
     RDKit          3D

 53 56  0  0  0  0  0  0  0  0999 V2000
   22.4950   11.8750   22.5810 C   0  0  0  0  0  0  0  0  0  0  0  0
   22.5380    9.4930   22.4640 N   0  0  0  0  0  0  0  0  0  0  0  0
   22.3600   13.0630   22.3480 O   0  0  0  0  0  0  0  0  0  0  0  0
   22.3390   10.6680   21.5610 C   0  0  2  0  0  0  0  0  0  0  0  0
   22.7860   11.3350   23.8120 N   0  0  0  0  0  0  0  0  0  0  0  0
   22.7800    9.9140   23.7010 C   0  0  0  0  0  0  0  0  0  0  0  0
   22.9970    9.1110   24.7490 N   0  0  0  0  0  0  0  0  0  0  0  0
   23.0220   12.1410   25.0180 C   0  0  0  0  0  0  0  0  0  0  0  0
   29.1260    9.8230   21.7090 N   0  0  0  0  0  0  0  0  0  0  0  0
   23.4880   10.6920   20.5300 C   0  0  0  0  0  0  0  0  0  0  0  0
   23.2110   10.7890   19.1730 C   0  0  0  0  0  0  0  0  0  0  0  0
   24.2350   10.8650   18.2430 C   0  0  0  0  0  0  0  0  0  0  0  0
   25.5500   10.8410   18.6560 C   0  0  0  0  0  0  0  0  0  0  0  0
   25.8710   10.7460   20.0070 C   0  0  0  0  0  0  0  0  0  0  0  0
   24.8260   10.6610   20.9430 C   0  0  0  0  0  0  0  0  0  0  0  0
   29.8540   10.9130   21.4510 C   0  0  0  0  0  0  0  0  0  0  0  0
   27.8830    9.7800   21.2080 C   0  0  0  0  0  0  0  0  0  0  0  0
   27.3000   10.8010   20.4650 C   0  0  0  0  0  0  0  0  0  0  0  0
   28.0930   11.9190   20.2200 C   0  0  0  0  0  0  0  0  0  0  0  0
   29.3850   11.9780   20.7130 C   0  0  0  0  0  0  0  0  0  0  0  0
    0.0000    0.0000    0.0000 H   0  0  0  0  0  0  0  0  0  0  0  0
    0.0000    0.0000    0.0000 H   0  0  0  0  0  0  0  0  0  0  0  0
    0.0000    0.0000    0.0000 H   0  0  0  0  0  0  0  0  0  0  0  0
    0.0000    0.0000    0.0000 H   0  0  0  0  0  0  0  0  0  0  0  0
    0.0000    0.0000    0.0000 H   0  0  0  0  0  0  0  0  0  0  0  0
    0.0000    0.0000    0.0000 H   0  0  0  0  0  0  0  0  0  0  0  0
    0.0000    0.0000    0.0000 H   0  0  0  0  0  0  0  0  0  0  0  0
    0.0000    0.0000    0.0000 H   0  0  0  0  0  0  0  0  0  0  0  0
    0.0000    0.0000    0.0000 H   0  0  0  0  0  0  0  0  0  0  0  0
    0.0000    0.0000    0.0000 H   0  0  0  0  0  0  0  0  0  0  0  0
    0.0000    0.0000    0.0000 H   0  0  0  0  0  0  0  0  0  0  0  0
    0.0000    0.0000    0.0000 H   0  0  0  0  0  0  0  0  0  0  0  0
    0.0000    0.0000    0.0000 H   0  0  0  0  0  0  0  0  0  0  0  0
   10.8897    5.2004   10.5105 C   0  0  0  0  0  0  0  0  0  0  0  0
    9.6285    6.0311   10.5748 C   0  0  0  0  0  0  0  0  0  0  0  0
    9.0560    5.9368   11.9513 C   0  0  0  0  0  0  0  0  0  0  0  0
    7.6964    6.5431   12.0692 C   0  0  0  0  0  0  0  0  0  0  0  0
    7.1437    7.0903   10.8012 C   0  0  0  0  0  0  0  0  0  0  0  0
    7.3427    6.2372    9.5999 C   0  0  0  0  0  0  0  0  0  0  0  0
    8.6607    5.5348    9.5398 C   0  0  0  0  0  0  0  0  0  0  0  0
   11.1854    5.1237    9.4626 H   0  0  0  0  0  0  0  0  0  0  0  0
   10.5917    4.1701   10.8606 H   0  0  0  0  0  0  0  0  0  0  0  0
    9.8370    7.0978   10.3515 H   0  0  0  0  0  0  0  0  0  0  0  0
    9.0101    4.8490   12.2560 H   0  0  0  0  0  0  0  0  0  0  0  0
    9.7981    6.3863   12.6552 H   0  0  0  0  0  0  0  0  0  0  0  0
    7.0063    5.8300   12.5864 H   0  0  0  0  0  0  0  0  0  0  0  0
    7.7891    7.4087   12.7903 H   0  0  0  0  0  0  0  0  0  0  0  0
    6.0291    7.2047   10.9467 H   0  0  0  0  0  0  0  0  0  0  0  0
    7.5111    8.1390   10.6666 H   0  0  0  0  0  0  0  0  0  0  0  0
    7.2808    6.9109    8.6954 H   0  0  0  0  0  0  0  0  0  0  0  0
    6.5268    5.5047    9.4664 H   0  0  0  0  0  0  0  0  0  0  0  0
    8.5514    4.4349    9.6526 H   0  0  0  0  0  0  0  0  0  0  0  0
    9.1599    5.6743    8.5403 H   0  0  0  0  0  0  0  0  0  0  0  0
  1  3  2  0
  1  4  1  0
  2  4  1  0
  1  5  1  0
  2  6  1  0
  5  6  1  0
  6  7  2  3
  5  8  1  0
  4 10  1  0
 10 11  2  0
 11 12  1  0
 12 13  2  0
 13 14  1  0
 10 15  1  0
 14 15  2  0
  9 16  2  0
  9 17  1  0
 14 18  1  0
 17 18  2  0
 18 19  1  0
 16 20  1  0
 19 20  2  0
  2 21  1  0
  7 22  1  0
  8 23  1  0
  8 24  1  0
  8 25  1  0
 11 26  1  0
 12 27  1  0
 13 28  1  0
 15 29  1  0
 16 30  1  0
 17 31  1  0
 19 32  1  0
 20 33  1  0
 34 35  1  0
 35 36  1  0
 36 37  1  0
 37 38  1  0
 38 39  1  0
 39 40  1  0
 40 35  1  0
 34 41  1  0
 34 42  1  0
 35 43  1  0
 36 44  1  0
 36 45  1  0
 37 46  1  0
 37 47  1  0
 38 48  1  0
 38 49  1  0
 39 50  1  0
 39 51  1  0
 40 52  1  0
 40 53  1  0
  4 34  1  6
M  END
>  <attachment_point>  (100) 
21

>  <score>  (100) 
<NA>

$$$$
4djw
     RDKit          3D

 36 38  0  0  0  0  0  0  0  0999 V2000
   22.4950   11.8750   22.5810 C   0  0  0  0  0  0  0  0  0  0  0  0
   22.5380    9.4930   22.4640 N   0  0  0  0  0  0  0  0  0  0  0  0
   22.3600   13.0630   22.3480 O   0  0  0  0  0  0  0  0  0  0  0  0
   22.3390   10.6680   21.5610 C   0  0  2  0  0  0  0  0  0  0  0  0
   22.7860   11.3350   23.8120 N   0  0  0  0  0  0  0  0  0  0  0  0
   22.7800    9.9140   23.7010 C   0  0  0  0  0  0  0  0  0  0  0  0
   22.9970    9.1110   24.7490 N   0  0  0  0  0  0  0  0  0  0  0  0
   23.0220   12.1410   25.0180 C   0  0  0  0  0  0  0  0  0  0  0  0
   29.1260    9.8230   21.7090 N   0  0  0  0  0  0  0  0  0  0  0  0
   23.4880   10.6920   20.5300 C   0  0  0  0  0  0  0  0  0  0  0  0
   23.2110   10.7890   19.1730 C   0  0  0  0  0  0  0  0  0  0  0  0
   24.2350   10.8650   18.2430 C   0  0  0  0  0  0  0  0  0  0  0  0
   25.5500   10.8410   18.6560 C   0  0  0  0  0  0  0  0  0  0  0  0
   25.8710   10.7460   20.0070 C   0  0  0  0  0  0  0  0  0  0  0  0
   24.8260   10.6610   20.9430 C   0  0  0  0  0  0  0  0  0  0  0  0
   29.8540   10.9130   21.4510 C   0  0  0  0  0  0  0  0  0  0  0  0
   27.8830    9.7800   21.2080 C   0  0  0  0  0  0  0  0  0  0  0  0
   27.3000   10.8010   20.4650 C   0  0  0  0  0  0  0  0  0  0  0  0
   28.0930   11.9190   20.2200 C   0  0  0  0  0  0  0  0  0  0  0  0
   29.3850   11.9780   20.7130 C   0  0  0  0  0  0  0  0  0  0  0  0
    0.0000    0.0000    0.0000 H   0  0  0  0  0  0  0  0  0  0  0  0
    0.0000    0.0000    0.0000 H   0  0  0  0  0  0  0  0  0  0  0  0
    0.0000    0.0000    0.0000 H   0  0  0  0  0  0  0  0  0  0  0  0
    0.0000    0.0000    0.0000 H   0  0  0  0  0  0  0  0  0  0  0  0
    0.0000    0.0000    0.0000 H   0  0  0  0  0  0  0  0  0  0  0  0
    0.0000    0.0000    0.0000 H   0  0  0  0  0  0  0  0  0  0  0  0
    0.0000    0.0000    0.0000 H   0  0  0  0  0  0  0  0  0  0  0  0
    0.0000    0.0000    0.0000 H   0  0  0  0  0  0  0  0  0  0  0  0
    0.0000    0.0000    0.0000 H   0  0  0  0  0  0  0  0  0  0  0  0
    0.0000    0.0000    0.0000 H   0  0  0  0  0  0  0  0  0  0  0  0
    0.0000    0.0000    0.0000 H   0  0  0  0  0  0  0  0  0  0  0  0
    0.0000    0.0000    0.0000 H   0  0  0  0  0  0  0  0  0  0  0  0
    0.0000    0.0000    0.0000 H   0  0  0  0  0  0  0  0  0  0  0  0
   10.8457    5.1794   10.4680 C   0  0  0  0  0  0  0  0  0  0  0  0
   10.0318    4.8054    9.6722 C   0  0  0  0  0  0  0  0  0  0  0  0
    9.3100    4.4935    8.9780 H   0  0  0  0  0  0  0  0  0  0  0  0
  1  3  2  0
  1  4  1  0
  2  4  1  0
  1  5  1  0
  2  6  1  0
  5  6  1  0
  6  7  2  3
  5  8  1  0
  4 10  1  0
 10 11  2  0
 11 12  1  0
 12 13  2  0
 13 14  1  0
 10 15  1  0
 14 15  2  0
  9 16  2  0
  9 17  1  0
 14 18  1  0
 17 18  2  0
 18 19  1  0
 16 20  1  0
 19 20  2  0
  2 21  1  0
  7 22  1  0
  8 23  1  0
  8 24  1  0
  8 25  1  0
 11 26  1  0
 12 27  1  0
 13 28  1  0
 15 29  1  0
 16 30  1  0
 17 31  1  0
 19 32  1  0
 20 33  1  0
 34 35  3  0
 35 36  1  0
  4 34  1  6
M  END
>  <attachment_point>  (101) 
21

>  <score>  (101) 
<NA>

$$$$
4djw
     RDKit          3D

 47 50  0  0  0  0  0  0  0  0999 V2000
   22.4950   11.8750   22.5810 C   0  0  0  0  0  0  0  0  0  0  0  0
   22.5380    9.4930   22.4640 N   0  0  0  0  0  0  0  0  0  0  0  0
   22.3600   13.0630   22.3480 O   0  0  0  0  0  0  0  0  0  0  0  0
   22.3390   10.6680   21.5610 C   0  0  2  0  0  0  0  0  0  0  0  0
   22.7860   11.3350   23.8120 N   0  0  0  0  0  0  0  0  0  0  0  0
   22.7800    9.9140   23.7010 C   0  0  0  0  0  0  0  0  0  0  0  0
   22.9970    9.1110   24.7490 N   0  0  0  0  0  0  0  0  0  0  0  0
   23.0220   12.1410   25.0180 C   0  0  0  0  0  0  0  0  0  0  0  0
   29.1260    9.8230   21.7090 N   0  0  0  0  0  0  0  0  0  0  0  0
   23.4880   10.6920   20.5300 C   0  0  0  0  0  0  0  0  0  0  0  0
   23.2110   10.7890   19.1730 C   0  0  0  0  0  0  0  0  0  0  0  0
   24.2350   10.8650   18.2430 C   0  0  0  0  0  0  0  0  0  0  0  0
   25.5500   10.8410   18.6560 C   0  0  0  0  0  0  0  0  0  0  0  0
   25.8710   10.7460   20.0070 C   0  0  0  0  0  0  0  0  0  0  0  0
   24.8260   10.6610   20.9430 C   0  0  0  0  0  0  0  0  0  0  0  0
   29.8540   10.9130   21.4510 C   0  0  0  0  0  0  0  0  0  0  0  0
   27.8830    9.7800   21.2080 C   0  0  0  0  0  0  0  0  0  0  0  0
   27.3000   10.8010   20.4650 C   0  0  0  0  0  0  0  0  0  0  0  0
   28.0930   11.9190   20.2200 C   0  0  0  0  0  0  0  0  0  0  0  0
   29.3850   11.9780   20.7130 C   0  0  0  0  0  0  0  0  0  0  0  0
    0.0000    0.0000    0.0000 H   0  0  0  0  0  0  0  0  0  0  0  0
    0.0000    0.0000    0.0000 H   0  0  0  0  0  0  0  0  0  0  0  0
    0.0000    0.0000    0.0000 H   0  0  0  0  0  0  0  0  0  0  0  0
    0.0000    0.0000    0.0000 H   0  0  0  0  0  0  0  0  0  0  0  0
    0.0000    0.0000    0.0000 H   0  0  0  0  0  0  0  0  0  0  0  0
    0.0000    0.0000    0.0000 H   0  0  0  0  0  0  0  0  0  0  0  0
    0.0000    0.0000    0.0000 H   0  0  0  0  0  0  0  0  0  0  0  0
    0.0000    0.0000    0.0000 H   0  0  0  0  0  0  0  0  0  0  0  0
    0.0000    0.0000    0.0000 H   0  0  0  0  0  0  0  0  0  0  0  0
    0.0000    0.0000    0.0000 H   0  0  0  0  0  0  0  0  0  0  0  0
    0.0000    0.0000    0.0000 H   0  0  0  0  0  0  0  0  0  0  0  0
    0.0000    0.0000    0.0000 H   0  0  0  0  0  0  0  0  0  0  0  0
    0.0000    0.0000    0.0000 H   0  0  0  0  0  0  0  0  0  0  0  0
   10.8004    5.1577   10.4243 C   0  0  0  0  0  0  0  0  0  0  0  0
    9.7191    4.5862   10.9113 C   0  0  0  0  0  0  0  0  0  0  0  0
    8.7722    4.1354    9.9554 C   0  0  0  0  0  0  0  0  0  0  0  0
    9.0512    4.3264    8.6182 C   0  0  0  0  0  0  0  0  0  0  0  0
    8.1428    3.8964    7.6331 O   0  0  0  0  0  0  0  0  0  0  0  0
    8.4494    4.1024    6.2746 C   0  0  0  0  0  0  0  0  0  0  0  0
   10.1767    4.9188    8.1822 N   0  0  0  0  0  0  0  0  0  0  0  0
   11.0864    5.3503    9.1409 C   0  0  0  0  0  0  0  0  0  0  0  0
    9.5002    4.4366   11.9543 H   0  0  0  0  0  0  0  0  0  0  0  0
    7.8777    3.6650   10.2922 H   0  0  0  0  0  0  0  0  0  0  0  0
    8.5087    5.1627    5.9888 H   0  0  0  0  0  0  0  0  0  0  0  0
    7.6470    3.5677    5.6928 H   0  0  0  0  0  0  0  0  0  0  0  0
    9.3981    3.5791    5.9676 H   0  0  0  0  0  0  0  0  0  0  0  0
   12.0029    5.8307    8.8430 H   0  0  0  0  0  0  0  0  0  0  0  0
  1  3  2  0
  1  4  1  0
  2  4  1  0
  1  5  1  0
  2  6  1  0
  5  6  1  0
  6  7  2  3
  5  8  1  0
  4 10  1  6
 10 11  2  0
 11 12  1  0
 12 13  2  0
 13 14  1  0
 10 15  1  0
 14 15  2  0
  9 16  2  0
  9 17  1  0
 14 18  1  0
 17 18  2  0
 18 19  1  0
 16 20  1  0
 19 20  2  0
  2 21  1  0
  7 22  1  0
  8 23  1  0
  8 24  1  0
  8 25  1  0
 11 26  1  0
 12 27  1  0
 13 28  1  0
 15 29  1  0
 16 30  1  0
 17 31  1  0
 19 32  1  0
 20 33  1  0
 34 35  2  0
 35 36  1  0
 36 37  2  0
 37 38  1  0
 38 39  1  0
 37 40  1  0
 40 41  2  0
 41 34  1  0
 35 42  1  0
 36 43  1  0
 39 44  1  0
 39 45  1  0
 39 46  1  0
 41 47  1  0
  4 34  1  0
M  END
>  <attachment_point>  (102) 
21

>  <score>  (102) 
<NA>

$$$$
4djw
     RDKit          3D

 49 52  0  0  0  0  0  0  0  0999 V2000
   22.4950   11.8750   22.5810 C   0  0  0  0  0  0  0  0  0  0  0  0
   22.5380    9.4930   22.4640 N   0  0  0  0  0  0  0  0  0  0  0  0
   22.3600   13.0630   22.3480 O   0  0  0  0  0  0  0  0  0  0  0  0
   22.3390   10.6680   21.5610 C   0  0  2  0  0  0  0  0  0  0  0  0
   22.7860   11.3350   23.8120 N   0  0  0  0  0  0  0  0  0  0  0  0
   22.7800    9.9140   23.7010 C   0  0  0  0  0  0  0  0  0  0  0  0
   22.9970    9.1110   24.7490 N   0  0  0  0  0  0  0  0  0  0  0  0
   23.0220   12.1410   25.0180 C   0  0  0  0  0  0  0  0  0  0  0  0
   29.1260    9.8230   21.7090 N   0  0  0  0  0  0  0  0  0  0  0  0
   23.4880   10.6920   20.5300 C   0  0  0  0  0  0  0  0  0  0  0  0
   23.2110   10.7890   19.1730 C   0  0  0  0  0  0  0  0  0  0  0  0
   24.2350   10.8650   18.2430 C   0  0  0  0  0  0  0  0  0  0  0  0
   25.5500   10.8410   18.6560 C   0  0  0  0  0  0  0  0  0  0  0  0
   25.8710   10.7460   20.0070 C   0  0  0  0  0  0  0  0  0  0  0  0
   24.8260   10.6610   20.9430 C   0  0  0  0  0  0  0  0  0  0  0  0
   29.8540   10.9130   21.4510 C   0  0  0  0  0  0  0  0  0  0  0  0
   27.8830    9.7800   21.2080 C   0  0  0  0  0  0  0  0  0  0  0  0
   27.3000   10.8010   20.4650 C   0  0  0  0  0  0  0  0  0  0  0  0
   28.0930   11.9190   20.2200 C   0  0  0  0  0  0  0  0  0  0  0  0
   29.3850   11.9780   20.7130 C   0  0  0  0  0  0  0  0  0  0  0  0
    0.0000    0.0000    0.0000 H   0  0  0  0  0  0  0  0  0  0  0  0
    0.0000    0.0000    0.0000 H   0  0  0  0  0  0  0  0  0  0  0  0
    0.0000    0.0000    0.0000 H   0  0  0  0  0  0  0  0  0  0  0  0
    0.0000    0.0000    0.0000 H   0  0  0  0  0  0  0  0  0  0  0  0
    0.0000    0.0000    0.0000 H   0  0  0  0  0  0  0  0  0  0  0  0
    0.0000    0.0000    0.0000 H   0  0  0  0  0  0  0  0  0  0  0  0
    0.0000    0.0000    0.0000 H   0  0  0  0  0  0  0  0  0  0  0  0
    0.0000    0.0000    0.0000 H   0  0  0  0  0  0  0  0  0  0  0  0
    0.0000    0.0000    0.0000 H   0  0  0  0  0  0  0  0  0  0  0  0
    0.0000    0.0000    0.0000 H   0  0  0  0  0  0  0  0  0  0  0  0
    0.0000    0.0000    0.0000 H   0  0  0  0  0  0  0  0  0  0  0  0
    0.0000    0.0000    0.0000 H   0  0  0  0  0  0  0  0  0  0  0  0
    0.0000    0.0000    0.0000 H   0  0  0  0  0  0  0  0  0  0  0  0
   10.8900    5.2005   10.5107 C   0  0  0  0  0  0  0  0  0  0  0  0
   10.0957    4.1032   11.2112 C   0  0  0  0  0  0  0  0  0  0  0  0
   11.0945    2.9611   11.4397 C   0  0  0  0  0  0  0  0  0  0  0  0
   11.4030    2.4596   10.1312 N   0  0  0  0  0  0  0  0  0  0  0  0
   12.2900    3.3853    9.4844 C   0  0  0  0  0  0  0  0  0  0  0  0
   11.5001    4.6637    9.2409 C   0  0  0  0  0  0  0  0  0  0  0  0
   10.1356    5.9694   10.1940 H   0  0  0  0  0  0  0  0  0  0  0  0
    9.3295    3.6779   10.5183 H   0  0  0  0  0  0  0  0  0  0  0  0
    9.6707    4.4612   12.1461 H   0  0  0  0  0  0  0  0  0  0  0  0
   10.5846    2.2011   12.0295 H   0  0  0  0  0  0  0  0  0  0  0  0
   11.9885    3.4022   11.9256 H   0  0  0  0  0  0  0  0  0  0  0  0
   11.6741    1.4784   10.0837 H   0  0  0  0  0  0  0  0  0  0  0  0
   13.2275    3.5751   10.0453 H   0  0  0  0  0  0  0  0  0  0  0  0
   12.5367    2.9730    8.4885 H   0  0  0  0  0  0  0  0  0  0  0  0
   12.1426    5.4358    8.8046 H   0  0  0  0  0  0  0  0  0  0  0  0
   10.6544    4.3840    8.5721 H   0  0  0  0  0  0  0  0  0  0  0  0
  1  3  2  0
  1  4  1  0
  2  4  1  0
  1  5  1  0
  2  6  1  0
  5  6  1  0
  6  7  2  3
  5  8  1  0
  4 10  1  0
 10 11  2  0
 11 12  1  0
 12 13  2  0
 13 14  1  0
 10 15  1  0
 14 15  2  0
  9 16  2  0
  9 17  1  0
 14 18  1  0
 17 18  2  0
 18 19  1  0
 16 20  1  0
 19 20  2  0
  2 21  1  0
  7 22  1  0
  8 23  1  0
  8 24  1  0
  8 25  1  0
 11 26  1  0
 12 27  1  0
 13 28  1  0
 15 29  1  0
 16 30  1  0
 17 31  1  0
 19 32  1  0
 20 33  1  0
 34 35  1  0
 35 36  1  0
 36 37  1  0
 37 38  1  0
 38 39  1  0
 39 34  1  0
 34 40  1  0
 35 41  1  0
 35 42  1  0
 36 43  1  0
 36 44  1  0
 37 45  1  0
 38 46  1  0
 38 47  1  0
 39 48  1  0
 39 49  1  0
  4 34  1  6
M  END
>  <attachment_point>  (103) 
21

>  <score>  (103) 
<NA>

$$$$
4djw
     RDKit          3D

 48 50  0  0  0  0  0  0  0  0999 V2000
   22.4950   11.8750   22.5810 C   0  0  0  0  0  0  0  0  0  0  0  0
   22.5380    9.4930   22.4640 N   0  0  0  0  0  0  0  0  0  0  0  0
   22.3600   13.0630   22.3480 O   0  0  0  0  0  0  0  0  0  0  0  0
   22.3390   10.6680   21.5610 C   0  0  2  0  0  0  0  0  0  0  0  0
   22.7860   11.3350   23.8120 N   0  0  0  0  0  0  0  0  0  0  0  0
   22.7800    9.9140   23.7010 C   0  0  0  0  0  0  0  0  0  0  0  0
   22.9970    9.1110   24.7490 N   0  0  0  0  0  0  0  0  0  0  0  0
   23.0220   12.1410   25.0180 C   0  0  0  0  0  0  0  0  0  0  0  0
   29.1260    9.8230   21.7090 N   0  0  0  0  0  0  0  0  0  0  0  0
   23.4880   10.6920   20.5300 C   0  0  0  0  0  0  0  0  0  0  0  0
   23.2110   10.7890   19.1730 C   0  0  0  0  0  0  0  0  0  0  0  0
   24.2350   10.8650   18.2430 C   0  0  0  0  0  0  0  0  0  0  0  0
   25.5500   10.8410   18.6560 C   0  0  0  0  0  0  0  0  0  0  0  0
   25.8710   10.7460   20.0070 C   0  0  0  0  0  0  0  0  0  0  0  0
   24.8260   10.6610   20.9430 C   0  0  0  0  0  0  0  0  0  0  0  0
   29.8540   10.9130   21.4510 C   0  0  0  0  0  0  0  0  0  0  0  0
   27.8830    9.7800   21.2080 C   0  0  0  0  0  0  0  0  0  0  0  0
   27.3000   10.8010   20.4650 C   0  0  0  0  0  0  0  0  0  0  0  0
   28.0930   11.9190   20.2200 C   0  0  0  0  0  0  0  0  0  0  0  0
   29.3850   11.9780   20.7130 C   0  0  0  0  0  0  0  0  0  0  0  0
    0.0000    0.0000    0.0000 H   0  0  0  0  0  0  0  0  0  0  0  0
    0.0000    0.0000    0.0000 H   0  0  0  0  0  0  0  0  0  0  0  0
    0.0000    0.0000    0.0000 H   0  0  0  0  0  0  0  0  0  0  0  0
    0.0000    0.0000    0.0000 H   0  0  0  0  0  0  0  0  0  0  0  0
    0.0000    0.0000    0.0000 H   0  0  0  0  0  0  0  0  0  0  0  0
    0.0000    0.0000    0.0000 H   0  0  0  0  0  0  0  0  0  0  0  0
    0.0000    0.0000    0.0000 H   0  0  0  0  0  0  0  0  0  0  0  0
    0.0000    0.0000    0.0000 H   0  0  0  0  0  0  0  0  0  0  0  0
    0.0000    0.0000    0.0000 H   0  0  0  0  0  0  0  0  0  0  0  0
    0.0000    0.0000    0.0000 H   0  0  0  0  0  0  0  0  0  0  0  0
    0.0000    0.0000    0.0000 H   0  0  0  0  0  0  0  0  0  0  0  0
    0.0000    0.0000    0.0000 H   0  0  0  0  0  0  0  0  0  0  0  0
    0.0000    0.0000    0.0000 H   0  0  0  0  0  0  0  0  0  0  0  0
   10.8901    5.2006   10.5108 C   0  0  0  0  0  0  0  0  0  0  0  0
   10.7901    3.6954   10.3851 C   0  0  0  0  0  0  0  0  0  0  0  0
   10.4560    3.0431   11.5999 N   0  0  0  0  0  0  0  0  0  0  0  0
   11.4930    3.0959   12.6021 C   0  0  0  0  0  0  0  0  0  0  0  0
    9.1859    3.3985   12.1444 C   0  0  0  0  0  0  0  0  0  0  0  0
    9.9141    5.6774   10.7403 H   0  0  0  0  0  0  0  0  0  0  0  0
   11.2388    5.6435    9.5236 H   0  0  0  0  0  0  0  0  0  0  0  0
    9.9942    3.4726    9.6429 H   0  0  0  0  0  0  0  0  0  0  0  0
   11.7210    3.3045    9.9439 H   0  0  0  0  0  0  0  0  0  0  0  0
   12.3180    2.3665   12.3840 H   0  0  0  0  0  0  0  0  0  0  0  0
   11.8837    4.1103   12.7624 H   0  0  0  0  0  0  0  0  0  0  0  0
   11.0390    2.7400   13.5567 H   0  0  0  0  0  0  0  0  0  0  0  0
    8.9128    2.7069   12.9693 H   0  0  0  0  0  0  0  0  0  0  0  0
    8.4013    3.2972   11.3750 H   0  0  0  0  0  0  0  0  0  0  0  0
    9.1517    4.4596   12.4976 H   0  0  0  0  0  0  0  0  0  0  0  0
  1  3  2  0
  1  4  1  0
  2  4  1  0
  1  5  1  0
  2  6  1  0
  5  6  1  0
  6  7  2  3
  5  8  1  0
  4 10  1  0
 10 11  2  0
 11 12  1  0
 12 13  2  0
 13 14  1  0
 10 15  1  0
 14 15  2  0
  9 16  2  0
  9 17  1  0
 14 18  1  0
 17 18  2  0
 18 19  1  0
 16 20  1  0
 19 20  2  0
  2 21  1  0
  7 22  1  0
  8 23  1  0
  8 24  1  0
  8 25  1  0
 11 26  1  0
 12 27  1  0
 13 28  1  0
 15 29  1  0
 16 30  1  0
 17 31  1  0
 19 32  1  0
 20 33  1  0
 34 35  1  0
 35 36  1  0
 36 37  1  0
 36 38  1  0
 34 39  1  0
 34 40  1  0
 35 41  1  0
 35 42  1  0
 37 43  1  0
 37 44  1  0
 37 45  1  0
 38 46  1  0
 38 47  1  0
 38 48  1  0
  4 34  1  6
M  END
>  <attachment_point>  (104) 
21

>  <score>  (104) 
<NA>

$$$$
4djw
     RDKit          3D

 40 43  0  0  0  0  0  0  0  0999 V2000
   22.4950   11.8750   22.5810 C   0  0  0  0  0  0  0  0  0  0  0  0
   22.5380    9.4930   22.4640 N   0  0  0  0  0  0  0  0  0  0  0  0
   22.3600   13.0630   22.3480 O   0  0  0  0  0  0  0  0  0  0  0  0
   22.3390   10.6680   21.5610 C   0  0  2  0  0  0  0  0  0  0  0  0
   22.7860   11.3350   23.8120 N   0  0  0  0  0  0  0  0  0  0  0  0
   22.7800    9.9140   23.7010 C   0  0  0  0  0  0  0  0  0  0  0  0
   22.9970    9.1110   24.7490 N   0  0  0  0  0  0  0  0  0  0  0  0
   23.0220   12.1410   25.0180 C   0  0  0  0  0  0  0  0  0  0  0  0
   29.1260    9.8230   21.7090 N   0  0  0  0  0  0  0  0  0  0  0  0
   23.4880   10.6920   20.5300 C   0  0  0  0  0  0  0  0  0  0  0  0
   23.2110   10.7890   19.1730 C   0  0  0  0  0  0  0  0  0  0  0  0
   24.2350   10.8650   18.2430 C   0  0  0  0  0  0  0  0  0  0  0  0
   25.5500   10.8410   18.6560 C   0  0  0  0  0  0  0  0  0  0  0  0
   25.8710   10.7460   20.0070 C   0  0  0  0  0  0  0  0  0  0  0  0
   24.8260   10.6610   20.9430 C   0  0  0  0  0  0  0  0  0  0  0  0
   29.8540   10.9130   21.4510 C   0  0  0  0  0  0  0  0  0  0  0  0
   27.8830    9.7800   21.2080 C   0  0  0  0  0  0  0  0  0  0  0  0
   27.3000   10.8010   20.4650 C   0  0  0  0  0  0  0  0  0  0  0  0
   28.0930   11.9190   20.2200 C   0  0  0  0  0  0  0  0  0  0  0  0
   29.3850   11.9780   20.7130 C   0  0  0  0  0  0  0  0  0  0  0  0
    0.0000    0.0000    0.0000 H   0  0  0  0  0  0  0  0  0  0  0  0
    0.0000    0.0000    0.0000 H   0  0  0  0  0  0  0  0  0  0  0  0
    0.0000    0.0000    0.0000 H   0  0  0  0  0  0  0  0  0  0  0  0
    0.0000    0.0000    0.0000 H   0  0  0  0  0  0  0  0  0  0  0  0
    0.0000    0.0000    0.0000 H   0  0  0  0  0  0  0  0  0  0  0  0
    0.0000    0.0000    0.0000 H   0  0  0  0  0  0  0  0  0  0  0  0
    0.0000    0.0000    0.0000 H   0  0  0  0  0  0  0  0  0  0  0  0
    0.0000    0.0000    0.0000 H   0  0  0  0  0  0  0  0  0  0  0  0
    0.0000    0.0000    0.0000 H   0  0  0  0  0  0  0  0  0  0  0  0
    0.0000    0.0000    0.0000 H   0  0  0  0  0  0  0  0  0  0  0  0
    0.0000    0.0000    0.0000 H   0  0  0  0  0  0  0  0  0  0  0  0
    0.0000    0.0000    0.0000 H   0  0  0  0  0  0  0  0  0  0  0  0
    0.0000    0.0000    0.0000 H   0  0  0  0  0  0  0  0  0  0  0  0
   10.8660    5.1891   10.4875 C   0  0  0  0  0  0  0  0  0  0  0  0
    9.7193    4.6593   10.7958 N   0  0  0  0  0  0  0  0  0  0  0  0
    8.9110    4.2716    9.8656 C   0  0  0  0  0  0  0  0  0  0  0  0
    9.3009    4.4367    8.5631 C   0  0  0  0  0  0  0  0  0  0  0  0
   10.8567    5.1634    8.7812 S   0  0  0  0  0  0  0  0  0  0  0  0
    7.9250    3.8154   10.0820 H   0  0  0  0  0  0  0  0  0  0  0  0
    8.7800    4.1827    7.6450 H   0  0  0  0  0  0  0  0  0  0  0  0
  1  3  2  0
  1  4  1  0
  2  4  1  0
  1  5  1  0
  2  6  1  0
  5  6  1  0
  6  7  2  3
  5  8  1  0
  4 10  1  6
 10 11  2  0
 11 12  1  0
 12 13  2  0
 13 14  1  0
 10 15  1  0
 14 15  2  0
  9 16  2  0
  9 17  1  0
 14 18  1  0
 17 18  2  0
 18 19  1  0
 16 20  1  0
 19 20  2  0
  2 21  1  0
  7 22  1  0
  8 23  1  0
  8 24  1  0
  8 25  1  0
 11 26  1  0
 12 27  1  0
 13 28  1  0
 15 29  1  0
 16 30  1  0
 17 31  1  0
 19 32  1  0
 20 33  1  0
 34 35  2  0
 35 36  1  0
 36 37  2  0
 37 38  1  0
 38 34  1  0
 36 39  1  0
 37 40  1  0
  4 34  1  0
M  END
>  <attachment_point>  (105) 
21

>  <score>  (105) 
<NA>

$$$$
4djw
     RDKit          3D

 46 49  0  0  0  0  0  0  0  0999 V2000
   22.4950   11.8750   22.5810 C   0  0  0  0  0  0  0  0  0  0  0  0
   22.5380    9.4930   22.4640 N   0  0  0  0  0  0  0  0  0  0  0  0
   22.3600   13.0630   22.3480 O   0  0  0  0  0  0  0  0  0  0  0  0
   22.3390   10.6680   21.5610 C   0  0  2  0  0  0  0  0  0  0  0  0
   22.7860   11.3350   23.8120 N   0  0  0  0  0  0  0  0  0  0  0  0
   22.7800    9.9140   23.7010 C   0  0  0  0  0  0  0  0  0  0  0  0
   22.9970    9.1110   24.7490 N   0  0  0  0  0  0  0  0  0  0  0  0
   23.0220   12.1410   25.0180 C   0  0  0  0  0  0  0  0  0  0  0  0
   29.1260    9.8230   21.7090 N   0  0  0  0  0  0  0  0  0  0  0  0
   23.4880   10.6920   20.5300 C   0  0  0  0  0  0  0  0  0  0  0  0
   23.2110   10.7890   19.1730 C   0  0  0  0  0  0  0  0  0  0  0  0
   24.2350   10.8650   18.2430 C   0  0  0  0  0  0  0  0  0  0  0  0
   25.5500   10.8410   18.6560 C   0  0  0  0  0  0  0  0  0  0  0  0
   25.8710   10.7460   20.0070 C   0  0  0  0  0  0  0  0  0  0  0  0
   24.8260   10.6610   20.9430 C   0  0  0  0  0  0  0  0  0  0  0  0
   29.8540   10.9130   21.4510 C   0  0  0  0  0  0  0  0  0  0  0  0
   27.8830    9.7800   21.2080 C   0  0  0  0  0  0  0  0  0  0  0  0
   27.3000   10.8010   20.4650 C   0  0  0  0  0  0  0  0  0  0  0  0
   28.0930   11.9190   20.2200 C   0  0  0  0  0  0  0  0  0  0  0  0
   29.3850   11.9780   20.7130 C   0  0  0  0  0  0  0  0  0  0  0  0
    0.0000    0.0000    0.0000 H   0  0  0  0  0  0  0  0  0  0  0  0
    0.0000    0.0000    0.0000 H   0  0  0  0  0  0  0  0  0  0  0  0
    0.0000    0.0000    0.0000 H   0  0  0  0  0  0  0  0  0  0  0  0
    0.0000    0.0000    0.0000 H   0  0  0  0  0  0  0  0  0  0  0  0
    0.0000    0.0000    0.0000 H   0  0  0  0  0  0  0  0  0  0  0  0
    0.0000    0.0000    0.0000 H   0  0  0  0  0  0  0  0  0  0  0  0
    0.0000    0.0000    0.0000 H   0  0  0  0  0  0  0  0  0  0  0  0
    0.0000    0.0000    0.0000 H   0  0  0  0  0  0  0  0  0  0  0  0
    0.0000    0.0000    0.0000 H   0  0  0  0  0  0  0  0  0  0  0  0
    0.0000    0.0000    0.0000 H   0  0  0  0  0  0  0  0  0  0  0  0
    0.0000    0.0000    0.0000 H   0  0  0  0  0  0  0  0  0  0  0  0
    0.0000    0.0000    0.0000 H   0  0  0  0  0  0  0  0  0  0  0  0
    0.0000    0.0000    0.0000 H   0  0  0  0  0  0  0  0  0  0  0  0
   10.8874    5.1993   10.5083 C   0  0  0  0  0  0  0  0  0  0  0  0
    9.4795    5.5379   10.8598 C   0  0  0  0  0  0  0  0  0  0  0  0
    8.7164    4.6873   11.6245 C   0  0  0  0  0  0  0  0  0  0  0  0
    7.4206    5.0515   11.9188 C   0  0  0  0  0  0  0  0  0  0  0  0
    6.8880    6.2167   11.4760 N   0  0  0  0  0  0  0  0  0  0  0  0
    7.6230    7.0493   10.7320 C   0  0  0  0  0  0  0  0  0  0  0  0
    8.9233    6.7136   10.4201 C   0  0  0  0  0  0  0  0  0  0  0  0
   11.0953    5.6766    9.5262 H   0  0  0  0  0  0  0  0  0  0  0  0
   11.0084    4.1065   10.3620 H   0  0  0  0  0  0  0  0  0  0  0  0
    9.1155    3.7634   11.9846 H   0  0  0  0  0  0  0  0  0  0  0  0
    6.7770    4.4228   12.5145 H   0  0  0  0  0  0  0  0  0  0  0  0
    7.1994    7.9982   10.3673 H   0  0  0  0  0  0  0  0  0  0  0  0
    9.5061    7.3975    9.8170 H   0  0  0  0  0  0  0  0  0  0  0  0
  1  3  2  0
  1  4  1  0
  2  4  1  0
  1  5  1  0
  2  6  1  0
  5  6  1  0
  6  7  2  3
  5  8  1  0
  4 10  1  0
 10 11  2  0
 11 12  1  0
 12 13  2  0
 13 14  1  0
 10 15  1  0
 14 15  2  0
  9 16  2  0
  9 17  1  0
 14 18  1  0
 17 18  2  0
 18 19  1  0
 16 20  1  0
 19 20  2  0
  2 21  1  0
  7 22  1  0
  8 23  1  0
  8 24  1  0
  8 25  1  0
 11 26  1  0
 12 27  1  0
 13 28  1  0
 15 29  1  0
 16 30  1  0
 17 31  1  0
 19 32  1  0
 20 33  1  0
 34 35  1  0
 35 36  2  0
 36 37  1  0
 37 38  2  0
 38 39  1  0
 39 40  2  0
 40 35  1  0
 34 41  1  0
 34 42  1  0
 36 43  1  0
 37 44  1  0
 39 45  1  0
 40 46  1  0
  4 34  1  6
M  END
>  <attachment_point>  (106) 
21

>  <score>  (106) 
<NA>

$$$$
4djw
     RDKit          3D

 45 47  0  0  0  0  0  0  0  0999 V2000
   22.4950   11.8750   22.5810 C   0  0  0  0  0  0  0  0  0  0  0  0
   22.5380    9.4930   22.4640 N   0  0  0  0  0  0  0  0  0  0  0  0
   22.3600   13.0630   22.3480 O   0  0  0  0  0  0  0  0  0  0  0  0
   22.3390   10.6680   21.5610 C   0  0  2  0  0  0  0  0  0  0  0  0
   22.7860   11.3350   23.8120 N   0  0  0  0  0  0  0  0  0  0  0  0
   22.7800    9.9140   23.7010 C   0  0  0  0  0  0  0  0  0  0  0  0
   22.9970    9.1110   24.7490 N   0  0  0  0  0  0  0  0  0  0  0  0
   23.0220   12.1410   25.0180 C   0  0  0  0  0  0  0  0  0  0  0  0
   29.1260    9.8230   21.7090 N   0  0  0  0  0  0  0  0  0  0  0  0
   23.4880   10.6920   20.5300 C   0  0  0  0  0  0  0  0  0  0  0  0
   23.2110   10.7890   19.1730 C   0  0  0  0  0  0  0  0  0  0  0  0
   24.2350   10.8650   18.2430 C   0  0  0  0  0  0  0  0  0  0  0  0
   25.5500   10.8410   18.6560 C   0  0  0  0  0  0  0  0  0  0  0  0
   25.8710   10.7460   20.0070 C   0  0  0  0  0  0  0  0  0  0  0  0
   24.8260   10.6610   20.9430 C   0  0  0  0  0  0  0  0  0  0  0  0
   29.8540   10.9130   21.4510 C   0  0  0  0  0  0  0  0  0  0  0  0
   27.8830    9.7800   21.2080 C   0  0  0  0  0  0  0  0  0  0  0  0
   27.3000   10.8010   20.4650 C   0  0  0  0  0  0  0  0  0  0  0  0
   28.0930   11.9190   20.2200 C   0  0  0  0  0  0  0  0  0  0  0  0
   29.3850   11.9780   20.7130 C   0  0  0  0  0  0  0  0  0  0  0  0
    0.0000    0.0000    0.0000 H   0  0  0  0  0  0  0  0  0  0  0  0
    0.0000    0.0000    0.0000 H   0  0  0  0  0  0  0  0  0  0  0  0
    0.0000    0.0000    0.0000 H   0  0  0  0  0  0  0  0  0  0  0  0
    0.0000    0.0000    0.0000 H   0  0  0  0  0  0  0  0  0  0  0  0
    0.0000    0.0000    0.0000 H   0  0  0  0  0  0  0  0  0  0  0  0
    0.0000    0.0000    0.0000 H   0  0  0  0  0  0  0  0  0  0  0  0
    0.0000    0.0000    0.0000 H   0  0  0  0  0  0  0  0  0  0  0  0
    0.0000    0.0000    0.0000 H   0  0  0  0  0  0  0  0  0  0  0  0
    0.0000    0.0000    0.0000 H   0  0  0  0  0  0  0  0  0  0  0  0
    0.0000    0.0000    0.0000 H   0  0  0  0  0  0  0  0  0  0  0  0
    0.0000    0.0000    0.0000 H   0  0  0  0  0  0  0  0  0  0  0  0
    0.0000    0.0000    0.0000 H   0  0  0  0  0  0  0  0  0  0  0  0
    0.0000    0.0000    0.0000 H   0  0  0  0  0  0  0  0  0  0  0  0
   10.9195    5.2146   10.5392 O   0  0  0  0  0  0  0  0  0  0  0  0
   10.4266    6.2105    9.6797 C   0  0  0  0  0  0  0  0  0  0  0  0
    9.4163    5.5693    8.7540 C   0  0  0  0  0  0  0  0  0  0  0  0
    8.3538    5.0044    9.4076 O   0  0  0  0  0  0  0  0  0  0  0  0
    7.6145    5.8754   10.1652 C   0  0  0  0  0  0  0  0  0  0  0  0
   11.2969    6.5110    9.0470 H   0  0  0  0  0  0  0  0  0  0  0  0
   10.0111    7.0654   10.2426 H   0  0  0  0  0  0  0  0  0  0  0  0
    9.1359    6.3081    7.9838 H   0  0  0  0  0  0  0  0  0  0  0  0
    9.9615    4.7473    8.2257 H   0  0  0  0  0  0  0  0  0  0  0  0
    8.2006    6.3719   10.9682 H   0  0  0  0  0  0  0  0  0  0  0  0
    6.8181    5.2698   10.6779 H   0  0  0  0  0  0  0  0  0  0  0  0
    7.1055    6.6705    9.5961 H   0  0  0  0  0  0  0  0  0  0  0  0
  1  3  2  0
  1  4  1  0
  2  4  1  0
  1  5  1  0
  2  6  1  0
  5  6  1  0
  6  7  2  3
  5  8  1  0
  4 10  1  0
 10 11  2  0
 11 12  1  0
 12 13  2  0
 13 14  1  0
 10 15  1  0
 14 15  2  0
  9 16  2  0
  9 17  1  0
 14 18  1  0
 17 18  2  0
 18 19  1  0
 16 20  1  0
 19 20  2  0
  2 21  1  0
  7 22  1  0
  8 23  1  0
  8 24  1  0
  8 25  1  0
 11 26  1  0
 12 27  1  0
 13 28  1  0
 15 29  1  0
 16 30  1  0
 17 31  1  0
 19 32  1  0
 20 33  1  0
 34 35  1  0
 35 36  1  0
 36 37  1  0
 37 38  1  0
 35 39  1  0
 35 40  1  0
 36 41  1  0
 36 42  1  0
 38 43  1  0
 38 44  1  0
 38 45  1  0
  4 34  1  6
M  END
>  <attachment_point>  (107) 
21

>  <score>  (107) 
<NA>

$$$$
4djw
     RDKit          3D

 52 54  0  0  0  0  0  0  0  0999 V2000
   22.4950   11.8750   22.5810 C   0  0  0  0  0  0  0  0  0  0  0  0
   22.5380    9.4930   22.4640 N   0  0  0  0  0  0  0  0  0  0  0  0
   22.3600   13.0630   22.3480 O   0  0  0  0  0  0  0  0  0  0  0  0
   22.3390   10.6680   21.5610 C   0  0  2  0  0  0  0  0  0  0  0  0
   22.7860   11.3350   23.8120 N   0  0  0  0  0  0  0  0  0  0  0  0
   22.7800    9.9140   23.7010 C   0  0  0  0  0  0  0  0  0  0  0  0
   22.9970    9.1110   24.7490 N   0  0  0  0  0  0  0  0  0  0  0  0
   23.0220   12.1410   25.0180 C   0  0  0  0  0  0  0  0  0  0  0  0
   29.1260    9.8230   21.7090 N   0  0  0  0  0  0  0  0  0  0  0  0
   23.4880   10.6920   20.5300 C   0  0  0  0  0  0  0  0  0  0  0  0
   23.2110   10.7890   19.1730 C   0  0  0  0  0  0  0  0  0  0  0  0
   24.2350   10.8650   18.2430 C   0  0  0  0  0  0  0  0  0  0  0  0
   25.5500   10.8410   18.6560 C   0  0  0  0  0  0  0  0  0  0  0  0
   25.8710   10.7460   20.0070 C   0  0  0  0  0  0  0  0  0  0  0  0
   24.8260   10.6610   20.9430 C   0  0  0  0  0  0  0  0  0  0  0  0
   29.8540   10.9130   21.4510 C   0  0  0  0  0  0  0  0  0  0  0  0
   27.8830    9.7800   21.2080 C   0  0  0  0  0  0  0  0  0  0  0  0
   27.3000   10.8010   20.4650 C   0  0  0  0  0  0  0  0  0  0  0  0
   28.0930   11.9190   20.2200 C   0  0  0  0  0  0  0  0  0  0  0  0
   29.3850   11.9780   20.7130 C   0  0  0  0  0  0  0  0  0  0  0  0
    0.0000    0.0000    0.0000 H   0  0  0  0  0  0  0  0  0  0  0  0
    0.0000    0.0000    0.0000 H   0  0  0  0  0  0  0  0  0  0  0  0
    0.0000    0.0000    0.0000 H   0  0  0  0  0  0  0  0  0  0  0  0
    0.0000    0.0000    0.0000 H   0  0  0  0  0  0  0  0  0  0  0  0
    0.0000    0.0000    0.0000 H   0  0  0  0  0  0  0  0  0  0  0  0
    0.0000    0.0000    0.0000 H   0  0  0  0  0  0  0  0  0  0  0  0
    0.0000    0.0000    0.0000 H   0  0  0  0  0  0  0  0  0  0  0  0
    0.0000    0.0000    0.0000 H   0  0  0  0  0  0  0  0  0  0  0  0
    0.0000    0.0000    0.0000 H   0  0  0  0  0  0  0  0  0  0  0  0
    0.0000    0.0000    0.0000 H   0  0  0  0  0  0  0  0  0  0  0  0
    0.0000    0.0000    0.0000 H   0  0  0  0  0  0  0  0  0  0  0  0
    0.0000    0.0000    0.0000 H   0  0  0  0  0  0  0  0  0  0  0  0
    0.0000    0.0000    0.0000 H   0  0  0  0  0  0  0  0  0  0  0  0
   10.8581    5.1853   10.4800 C   0  0  0  0  0  0  0  0  0  0  0  0
    9.7119    4.6820   11.2985 C   0  0  0  0  0  0  0  0  0  0  0  0
    9.1493    5.7879   12.1508 C   0  0  0  0  0  0  0  0  0  0  0  0
    7.9857    5.3237   12.9973 C   0  0  0  0  0  0  0  0  0  0  0  0
    6.8474    4.8036   12.1598 C   0  0  0  0  0  0  0  0  0  0  0  0
    5.7500    4.3726   13.1296 C   0  0  0  0  0  0  0  0  0  0  0  0
   10.6207    6.0766    9.8828 H   0  0  0  0  0  0  0  0  0  0  0  0
   11.3995    4.4124    9.9396 H   0  0  0  0  0  0  0  0  0  0  0  0
    8.9566    4.2481   10.6161 H   0  0  0  0  0  0  0  0  0  0  0  0
   10.0882    3.8329   11.9158 H   0  0  0  0  0  0  0  0  0  0  0  0
    9.9492    6.1109   12.8518 H   0  0  0  0  0  0  0  0  0  0  0  0
    8.8779    6.6247   11.4934 H   0  0  0  0  0  0  0  0  0  0  0  0
    7.5999    6.1944   13.5651 H   0  0  0  0  0  0  0  0  0  0  0  0
    8.2887    4.5695   13.7184 H   0  0  0  0  0  0  0  0  0  0  0  0
    7.1336    3.9745   11.4896 H   0  0  0  0  0  0  0  0  0  0  0  0
    6.4036    5.5985   11.5192 H   0  0  0  0  0  0  0  0  0  0  0  0
    4.7478    4.6433   12.7528 H   0  0  0  0  0  0  0  0  0  0  0  0
    5.8680    3.2995   13.3267 H   0  0  0  0  0  0  0  0  0  0  0  0
    5.8897    4.8856   14.1259 H   0  0  0  0  0  0  0  0  0  0  0  0
  1  3  2  0
  1  4  1  0
  2  4  1  0
  1  5  1  0
  2  6  1  0
  5  6  1  0
  6  7  2  3
  5  8  1  0
  4 10  1  0
 10 11  2  0
 11 12  1  0
 12 13  2  0
 13 14  1  0
 10 15  1  0
 14 15  2  0
  9 16  2  0
  9 17  1  0
 14 18  1  0
 17 18  2  0
 18 19  1  0
 16 20  1  0
 19 20  2  0
  2 21  1  0
  7 22  1  0
  8 23  1  0
  8 24  1  0
  8 25  1  0
 11 26  1  0
 12 27  1  0
 13 28  1  0
 15 29  1  0
 16 30  1  0
 17 31  1  0
 19 32  1  0
 20 33  1  0
 34 35  1  0
 35 36  1  0
 36 37  1  0
 37 38  1  0
 38 39  1  0
 34 40  1  0
 34 41  1  0
 35 42  1  0
 35 43  1  0
 36 44  1  0
 36 45  1  0
 37 46  1  0
 37 47  1  0
 38 48  1  0
 38 49  1  0
 39 50  1  0
 39 51  1  0
 39 52  1  0
  4 34  1  6
M  END
>  <attachment_point>  (108) 
21

>  <score>  (108) 
<NA>

$$$$
4djw
     RDKit          3D

 48 51  0  0  0  0  0  0  0  0999 V2000
   22.4950   11.8750   22.5810 C   0  0  0  0  0  0  0  0  0  0  0  0
   22.5380    9.4930   22.4640 N   0  0  0  0  0  0  0  0  0  0  0  0
   22.3600   13.0630   22.3480 O   0  0  0  0  0  0  0  0  0  0  0  0
   22.3390   10.6680   21.5610 C   0  0  2  0  0  0  0  0  0  0  0  0
   22.7860   11.3350   23.8120 N   0  0  0  0  0  0  0  0  0  0  0  0
   22.7800    9.9140   23.7010 C   0  0  0  0  0  0  0  0  0  0  0  0
   22.9970    9.1110   24.7490 N   0  0  0  0  0  0  0  0  0  0  0  0
   23.0220   12.1410   25.0180 C   0  0  0  0  0  0  0  0  0  0  0  0
   29.1260    9.8230   21.7090 N   0  0  0  0  0  0  0  0  0  0  0  0
   23.4880   10.6920   20.5300 C   0  0  0  0  0  0  0  0  0  0  0  0
   23.2110   10.7890   19.1730 C   0  0  0  0  0  0  0  0  0  0  0  0
   24.2350   10.8650   18.2430 C   0  0  0  0  0  0  0  0  0  0  0  0
   25.5500   10.8410   18.6560 C   0  0  0  0  0  0  0  0  0  0  0  0
   25.8710   10.7460   20.0070 C   0  0  0  0  0  0  0  0  0  0  0  0
   24.8260   10.6610   20.9430 C   0  0  0  0  0  0  0  0  0  0  0  0
   29.8540   10.9130   21.4510 C   0  0  0  0  0  0  0  0  0  0  0  0
   27.8830    9.7800   21.2080 C   0  0  0  0  0  0  0  0  0  0  0  0
   27.3000   10.8010   20.4650 C   0  0  0  0  0  0  0  0  0  0  0  0
   28.0930   11.9190   20.2200 C   0  0  0  0  0  0  0  0  0  0  0  0
   29.3850   11.9780   20.7130 C   0  0  0  0  0  0  0  0  0  0  0  0
    0.0000    0.0000    0.0000 H   0  0  0  0  0  0  0  0  0  0  0  0
    0.0000    0.0000    0.0000 H   0  0  0  0  0  0  0  0  0  0  0  0
    0.0000    0.0000    0.0000 H   0  0  0  0  0  0  0  0  0  0  0  0
    0.0000    0.0000    0.0000 H   0  0  0  0  0  0  0  0  0  0  0  0
    0.0000    0.0000    0.0000 H   0  0  0  0  0  0  0  0  0  0  0  0
    0.0000    0.0000    0.0000 H   0  0  0  0  0  0  0  0  0  0  0  0
    0.0000    0.0000    0.0000 H   0  0  0  0  0  0  0  0  0  0  0  0
    0.0000    0.0000    0.0000 H   0  0  0  0  0  0  0  0  0  0  0  0
    0.0000    0.0000    0.0000 H   0  0  0  0  0  0  0  0  0  0  0  0
    0.0000    0.0000    0.0000 H   0  0  0  0  0  0  0  0  0  0  0  0
    0.0000    0.0000    0.0000 H   0  0  0  0  0  0  0  0  0  0  0  0
    0.0000    0.0000    0.0000 H   0  0  0  0  0  0  0  0  0  0  0  0
    0.0000    0.0000    0.0000 H   0  0  0  0  0  0  0  0  0  0  0  0
   10.9047    5.2075   10.5249 C   0  0  0  0  0  0  0  0  0  0  0  0
   11.1200    5.5615    9.0555 C   0  0  0  0  0  0  0  0  0  0  0  0
    9.8397    5.3141    8.3319 C   0  0  0  0  0  0  0  0  0  0  0  0
    9.1393    4.2904    9.0008 O   0  0  0  0  0  0  0  0  0  0  0  0
    9.9989    3.2546    9.3789 C   0  0  0  0  0  0  0  0  0  0  0  0
   10.8354    3.6808   10.5585 C   0  0  0  0  0  0  0  0  0  0  0  0
    9.8842    5.5599   10.8113 H   0  0  0  0  0  0  0  0  0  0  0  0
   11.9183    4.9392    8.5968 H   0  0  0  0  0  0  0  0  0  0  0  0
   11.4449    6.6264    9.0521 H   0  0  0  0  0  0  0  0  0  0  0  0
    9.1507    6.1901    8.3179 H   0  0  0  0  0  0  0  0  0  0  0  0
    9.9936    4.9273    7.2965 H   0  0  0  0  0  0  0  0  0  0  0  0
   10.5955    2.9528    8.5017 H   0  0  0  0  0  0  0  0  0  0  0  0
    9.3562    2.3831    9.6331 H   0  0  0  0  0  0  0  0  0  0  0  0
   10.3146    3.3752   11.4960 H   0  0  0  0  0  0  0  0  0  0  0  0
   11.8467    3.2455   10.5149 H   0  0  0  0  0  0  0  0  0  0  0  0
  1  3  2  0
  1  4  1  0
  2  4  1  0
  1  5  1  0
  2  6  1  0
  5  6  1  0
  6  7  2  3
  5  8  1  0
  4 10  1  0
 10 11  2  0
 11 12  1  0
 12 13  2  0
 13 14  1  0
 10 15  1  0
 14 15  2  0
  9 16  2  0
  9 17  1  0
 14 18  1  0
 17 18  2  0
 18 19  1  0
 16 20  1  0
 19 20  2  0
  2 21  1  0
  7 22  1  0
  8 23  1  0
  8 24  1  0
  8 25  1  0
 11 26  1  0
 12 27  1  0
 13 28  1  0
 15 29  1  0
 16 30  1  0
 17 31  1  0
 19 32  1  0
 20 33  1  0
 34 35  1  0
 35 36  1  0
 36 37  1  0
 37 38  1  0
 38 39  1  0
 39 34  1  0
 34 40  1  0
 35 41  1  0
 35 42  1  0
 36 43  1  0
 36 44  1  0
 38 45  1  0
 38 46  1  0
 39 47  1  0
 39 48  1  0
  4 34  1  6
M  END
>  <attachment_point>  (109) 
21

>  <score>  (109) 
<NA>

$$$$
4djw
     RDKit          3D

 42 45  0  0  0  0  0  0  0  0999 V2000
   22.4950   11.8750   22.5810 C   0  0  0  0  0  0  0  0  0  0  0  0
   22.5380    9.4930   22.4640 N   0  0  0  0  0  0  0  0  0  0  0  0
   22.3600   13.0630   22.3480 O   0  0  0  0  0  0  0  0  0  0  0  0
   22.3390   10.6680   21.5610 C   0  0  2  0  0  0  0  0  0  0  0  0
   22.7860   11.3350   23.8120 N   0  0  0  0  0  0  0  0  0  0  0  0
   22.7800    9.9140   23.7010 C   0  0  0  0  0  0  0  0  0  0  0  0
   22.9970    9.1110   24.7490 N   0  0  0  0  0  0  0  0  0  0  0  0
   23.0220   12.1410   25.0180 C   0  0  0  0  0  0  0  0  0  0  0  0
   29.1260    9.8230   21.7090 N   0  0  0  0  0  0  0  0  0  0  0  0
   23.4880   10.6920   20.5300 C   0  0  0  0  0  0  0  0  0  0  0  0
   23.2110   10.7890   19.1730 C   0  0  0  0  0  0  0  0  0  0  0  0
   24.2350   10.8650   18.2430 C   0  0  0  0  0  0  0  0  0  0  0  0
   25.5500   10.8410   18.6560 C   0  0  0  0  0  0  0  0  0  0  0  0
   25.8710   10.7460   20.0070 C   0  0  0  0  0  0  0  0  0  0  0  0
   24.8260   10.6610   20.9430 C   0  0  0  0  0  0  0  0  0  0  0  0
   29.8540   10.9130   21.4510 C   0  0  0  0  0  0  0  0  0  0  0  0
   27.8830    9.7800   21.2080 C   0  0  0  0  0  0  0  0  0  0  0  0
   27.3000   10.8010   20.4650 C   0  0  0  0  0  0  0  0  0  0  0  0
   28.0930   11.9190   20.2200 C   0  0  0  0  0  0  0  0  0  0  0  0
   29.3850   11.9780   20.7130 C   0  0  0  0  0  0  0  0  0  0  0  0
    0.0000    0.0000    0.0000 H   0  0  0  0  0  0  0  0  0  0  0  0
    0.0000    0.0000    0.0000 H   0  0  0  0  0  0  0  0  0  0  0  0
    0.0000    0.0000    0.0000 H   0  0  0  0  0  0  0  0  0  0  0  0
    0.0000    0.0000    0.0000 H   0  0  0  0  0  0  0  0  0  0  0  0
    0.0000    0.0000    0.0000 H   0  0  0  0  0  0  0  0  0  0  0  0
    0.0000    0.0000    0.0000 H   0  0  0  0  0  0  0  0  0  0  0  0
    0.0000    0.0000    0.0000 H   0  0  0  0  0  0  0  0  0  0  0  0
    0.0000    0.0000    0.0000 H   0  0  0  0  0  0  0  0  0  0  0  0
    0.0000    0.0000    0.0000 H   0  0  0  0  0  0  0  0  0  0  0  0
    0.0000    0.0000    0.0000 H   0  0  0  0  0  0  0  0  0  0  0  0
    0.0000    0.0000    0.0000 H   0  0  0  0  0  0  0  0  0  0  0  0
    0.0000    0.0000    0.0000 H   0  0  0  0  0  0  0  0  0  0  0  0
    0.0000    0.0000    0.0000 H   0  0  0  0  0  0  0  0  0  0  0  0
   10.8505    5.1816   10.4726 C   0  0  0  0  0  0  0  0  0  0  0  0
   11.1610    5.1083    9.1884 N   0  0  0  0  0  0  0  0  0  0  0  0
   10.2273    4.6632    8.2924 C   0  0  0  0  0  0  0  0  0  0  0  0
    8.9717    4.2927    8.7176 C   0  0  0  0  0  0  0  0  0  0  0  0
    8.6792    4.3806   10.0615 C   0  0  0  0  0  0  0  0  0  0  0  0
    9.6449    4.8314   10.9193 N   0  0  0  0  0  0  0  0  0  0  0  0
   10.4847    4.6050    7.2468 H   0  0  0  0  0  0  0  0  0  0  0  0
    8.2314    3.9406    8.0125 H   0  0  0  0  0  0  0  0  0  0  0  0
    7.7044    4.0973   10.4219 H   0  0  0  0  0  0  0  0  0  0  0  0
  1  3  2  0
  1  4  1  0
  2  4  1  0
  1  5  1  0
  2  6  1  0
  5  6  1  0
  6  7  2  3
  5  8  1  0
  4 10  1  6
 10 11  2  0
 11 12  1  0
 12 13  2  0
 13 14  1  0
 10 15  1  0
 14 15  2  0
  9 16  2  0
  9 17  1  0
 14 18  1  0
 17 18  2  0
 18 19  1  0
 16 20  1  0
 19 20  2  0
  2 21  1  0
  7 22  1  0
  8 23  1  0
  8 24  1  0
  8 25  1  0
 11 26  1  0
 12 27  1  0
 13 28  1  0
 15 29  1  0
 16 30  1  0
 17 31  1  0
 19 32  1  0
 20 33  1  0
 34 35  2  0
 35 36  1  0
 36 37  2  0
 37 38  1  0
 38 39  2  0
 39 34  1  0
 36 40  1  0
 37 41  1  0
 38 42  1  0
  4 34  1  0
M  END
>  <attachment_point>  (110) 
21

>  <score>  (110) 
<NA>

$$$$
4djw
     RDKit          3D

 42 44  0  0  0  0  0  0  0  0999 V2000
   22.4950   11.8750   22.5810 C   0  0  0  0  0  0  0  0  0  0  0  0
   22.5380    9.4930   22.4640 N   0  0  0  0  0  0  0  0  0  0  0  0
   22.3600   13.0630   22.3480 O   0  0  0  0  0  0  0  0  0  0  0  0
   22.3390   10.6680   21.5610 C   0  0  2  0  0  0  0  0  0  0  0  0
   22.7860   11.3350   23.8120 N   0  0  0  0  0  0  0  0  0  0  0  0
   22.7800    9.9140   23.7010 C   0  0  0  0  0  0  0  0  0  0  0  0
   22.9970    9.1110   24.7490 N   0  0  0  0  0  0  0  0  0  0  0  0
   23.0220   12.1410   25.0180 C   0  0  0  0  0  0  0  0  0  0  0  0
   29.1260    9.8230   21.7090 N   0  0  0  0  0  0  0  0  0  0  0  0
   23.4880   10.6920   20.5300 C   0  0  0  0  0  0  0  0  0  0  0  0
   23.2110   10.7890   19.1730 C   0  0  0  0  0  0  0  0  0  0  0  0
   24.2350   10.8650   18.2430 C   0  0  0  0  0  0  0  0  0  0  0  0
   25.5500   10.8410   18.6560 C   0  0  0  0  0  0  0  0  0  0  0  0
   25.8710   10.7460   20.0070 C   0  0  0  0  0  0  0  0  0  0  0  0
   24.8260   10.6610   20.9430 C   0  0  0  0  0  0  0  0  0  0  0  0
   29.8540   10.9130   21.4510 C   0  0  0  0  0  0  0  0  0  0  0  0
   27.8830    9.7800   21.2080 C   0  0  0  0  0  0  0  0  0  0  0  0
   27.3000   10.8010   20.4650 C   0  0  0  0  0  0  0  0  0  0  0  0
   28.0930   11.9190   20.2200 C   0  0  0  0  0  0  0  0  0  0  0  0
   29.3850   11.9780   20.7130 C   0  0  0  0  0  0  0  0  0  0  0  0
    0.0000    0.0000    0.0000 H   0  0  0  0  0  0  0  0  0  0  0  0
    0.0000    0.0000    0.0000 H   0  0  0  0  0  0  0  0  0  0  0  0
    0.0000    0.0000    0.0000 H   0  0  0  0  0  0  0  0  0  0  0  0
    0.0000    0.0000    0.0000 H   0  0  0  0  0  0  0  0  0  0  0  0
    0.0000    0.0000    0.0000 H   0  0  0  0  0  0  0  0  0  0  0  0
    0.0000    0.0000    0.0000 H   0  0  0  0  0  0  0  0  0  0  0  0
    0.0000    0.0000    0.0000 H   0  0  0  0  0  0  0  0  0  0  0  0
    0.0000    0.0000    0.0000 H   0  0  0  0  0  0  0  0  0  0  0  0
    0.0000    0.0000    0.0000 H   0  0  0  0  0  0  0  0  0  0  0  0
    0.0000    0.0000    0.0000 H   0  0  0  0  0  0  0  0  0  0  0  0
    0.0000    0.0000    0.0000 H   0  0  0  0  0  0  0  0  0  0  0  0
    0.0000    0.0000    0.0000 H   0  0  0  0  0  0  0  0  0  0  0  0
    0.0000    0.0000    0.0000 H   0  0  0  0  0  0  0  0  0  0  0  0
   10.8558    5.1842   10.4778 N   0  0  0  0  0  0  0  0  0  0  0  0
    9.5996    5.2300   11.2410 C   0  0  0  0  0  0  0  0  0  0  0  0
    9.3409    6.6549   11.6900 C   0  0  0  0  0  0  0  0  0  0  0  0
   10.8437    6.0387    9.8764 H   0  0  0  0  0  0  0  0  0  0  0  0
    9.6197    4.5142   12.0901 H   0  0  0  0  0  0  0  0  0  0  0  0
    8.8203    4.8687   10.5485 H   0  0  0  0  0  0  0  0  0  0  0  0
    9.9492    7.3596   11.0861 H   0  0  0  0  0  0  0  0  0  0  0  0
    9.6642    6.7835   12.7396 H   0  0  0  0  0  0  0  0  0  0  0  0
    8.2702    6.9278   11.6168 H   0  0  0  0  0  0  0  0  0  0  0  0
  1  3  2  0
  1  4  1  0
  2  4  1  0
  1  5  1  0
  2  6  1  0
  5  6  1  0
  6  7  2  3
  5  8  1  0
  4 10  1  0
 10 11  2  0
 11 12  1  0
 12 13  2  0
 13 14  1  0
 10 15  1  0
 14 15  2  0
  9 16  2  0
  9 17  1  0
 14 18  1  0
 17 18  2  0
 18 19  1  0
 16 20  1  0
 19 20  2  0
  2 21  1  0
  7 22  1  0
  8 23  1  0
  8 24  1  0
  8 25  1  0
 11 26  1  0
 12 27  1  0
 13 28  1  0
 15 29  1  0
 16 30  1  0
 17 31  1  0
 19 32  1  0
 20 33  1  0
 34 35  1  0
 35 36  1  0
 34 37  1  0
 35 38  1  0
 35 39  1  0
 36 40  1  0
 36 41  1  0
 36 42  1  0
  4 34  1  6
M  END
>  <attachment_point>  (111) 
21

>  <score>  (111) 
<NA>

$$$$
4djw
     RDKit          3D

 41 44  0  0  0  0  0  0  0  0999 V2000
   22.4950   11.8750   22.5810 C   0  0  0  0  0  0  0  0  0  0  0  0
   22.5380    9.4930   22.4640 N   0  0  0  0  0  0  0  0  0  0  0  0
   22.3600   13.0630   22.3480 O   0  0  0  0  0  0  0  0  0  0  0  0
   22.3390   10.6680   21.5610 C   0  0  2  0  0  0  0  0  0  0  0  0
   22.7860   11.3350   23.8120 N   0  0  0  0  0  0  0  0  0  0  0  0
   22.7800    9.9140   23.7010 C   0  0  0  0  0  0  0  0  0  0  0  0
   22.9970    9.1110   24.7490 N   0  0  0  0  0  0  0  0  0  0  0  0
   23.0220   12.1410   25.0180 C   0  0  0  0  0  0  0  0  0  0  0  0
   29.1260    9.8230   21.7090 N   0  0  0  0  0  0  0  0  0  0  0  0
   23.4880   10.6920   20.5300 C   0  0  0  0  0  0  0  0  0  0  0  0
   23.2110   10.7890   19.1730 C   0  0  0  0  0  0  0  0  0  0  0  0
   24.2350   10.8650   18.2430 C   0  0  0  0  0  0  0  0  0  0  0  0
   25.5500   10.8410   18.6560 C   0  0  0  0  0  0  0  0  0  0  0  0
   25.8710   10.7460   20.0070 C   0  0  0  0  0  0  0  0  0  0  0  0
   24.8260   10.6610   20.9430 C   0  0  0  0  0  0  0  0  0  0  0  0
   29.8540   10.9130   21.4510 C   0  0  0  0  0  0  0  0  0  0  0  0
   27.8830    9.7800   21.2080 C   0  0  0  0  0  0  0  0  0  0  0  0
   27.3000   10.8010   20.4650 C   0  0  0  0  0  0  0  0  0  0  0  0
   28.0930   11.9190   20.2200 C   0  0  0  0  0  0  0  0  0  0  0  0
   29.3850   11.9780   20.7130 C   0  0  0  0  0  0  0  0  0  0  0  0
    0.0000    0.0000    0.0000 H   0  0  0  0  0  0  0  0  0  0  0  0
    0.0000    0.0000    0.0000 H   0  0  0  0  0  0  0  0  0  0  0  0
    0.0000    0.0000    0.0000 H   0  0  0  0  0  0  0  0  0  0  0  0
    0.0000    0.0000    0.0000 H   0  0  0  0  0  0  0  0  0  0  0  0
    0.0000    0.0000    0.0000 H   0  0  0  0  0  0  0  0  0  0  0  0
    0.0000    0.0000    0.0000 H   0  0  0  0  0  0  0  0  0  0  0  0
    0.0000    0.0000    0.0000 H   0  0  0  0  0  0  0  0  0  0  0  0
    0.0000    0.0000    0.0000 H   0  0  0  0  0  0  0  0  0  0  0  0
    0.0000    0.0000    0.0000 H   0  0  0  0  0  0  0  0  0  0  0  0
    0.0000    0.0000    0.0000 H   0  0  0  0  0  0  0  0  0  0  0  0
    0.0000    0.0000    0.0000 H   0  0  0  0  0  0  0  0  0  0  0  0
    0.0000    0.0000    0.0000 H   0  0  0  0  0  0  0  0  0  0  0  0
    0.0000    0.0000    0.0000 H   0  0  0  0  0  0  0  0  0  0  0  0
   10.8313    5.1725   10.4541 C   0  0  0  0  0  0  0  0  0  0  0  0
    9.5095    5.0908   10.6427 C   0  0  0  0  0  0  0  0  0  0  0  0
    9.0300    4.5935    9.4650 N   0  0  0  0  0  0  0  0  0  0  0  0
   10.0603    4.3963    8.6227 N   0  0  0  0  0  0  0  0  0  0  0  0
   11.2211    4.7645    9.2470 C   0  0  0  0  0  0  0  0  0  0  0  0
    8.8986    5.3422   11.5004 H   0  0  0  0  0  0  0  0  0  0  0  0
    9.9018    4.0207    7.6704 H   0  0  0  0  0  0  0  0  0  0  0  0
   12.1698    4.6947    8.7695 H   0  0  0  0  0  0  0  0  0  0  0  0
  1  3  2  0
  1  4  1  0
  2  4  1  0
  1  5  1  0
  2  6  1  0
  5  6  1  0
  6  7  2  3
  5  8  1  0
  4 10  1  6
 10 11  2  0
 11 12  1  0
 12 13  2  0
 13 14  1  0
 10 15  1  0
 14 15  2  0
  9 16  2  0
  9 17  1  0
 14 18  1  0
 17 18  2  0
 18 19  1  0
 16 20  1  0
 19 20  2  0
  2 21  1  0
  7 22  1  0
  8 23  1  0
  8 24  1  0
  8 25  1  0
 11 26  1  0
 12 27  1  0
 13 28  1  0
 15 29  1  0
 16 30  1  0
 17 31  1  0
 19 32  1  0
 20 33  1  0
 34 35  1  0
 35 36  2  0
 36 37  1  0
 37 38  1  0
 38 34  2  0
 35 39  1  0
 37 40  1  0
 38 41  1  0
  4 34  1  0
M  END
>  <attachment_point>  (112) 
21

>  <score>  (112) 
<NA>

$$$$
4djw
     RDKit          3D

 41 44  0  0  0  0  0  0  0  0999 V2000
   22.4950   11.8750   22.5810 C   0  0  0  0  0  0  0  0  0  0  0  0
   22.5380    9.4930   22.4640 N   0  0  0  0  0  0  0  0  0  0  0  0
   22.3600   13.0630   22.3480 O   0  0  0  0  0  0  0  0  0  0  0  0
   22.3390   10.6680   21.5610 C   0  0  2  0  0  0  0  0  0  0  0  0
   22.7860   11.3350   23.8120 N   0  0  0  0  0  0  0  0  0  0  0  0
   22.7800    9.9140   23.7010 C   0  0  0  0  0  0  0  0  0  0  0  0
   22.9970    9.1110   24.7490 N   0  0  0  0  0  0  0  0  0  0  0  0
   23.0220   12.1410   25.0180 C   0  0  0  0  0  0  0  0  0  0  0  0
   29.1260    9.8230   21.7090 N   0  0  0  0  0  0  0  0  0  0  0  0
   23.4880   10.6920   20.5300 C   0  0  0  0  0  0  0  0  0  0  0  0
   23.2110   10.7890   19.1730 C   0  0  0  0  0  0  0  0  0  0  0  0
   24.2350   10.8650   18.2430 C   0  0  0  0  0  0  0  0  0  0  0  0
   25.5500   10.8410   18.6560 C   0  0  0  0  0  0  0  0  0  0  0  0
   25.8710   10.7460   20.0070 C   0  0  0  0  0  0  0  0  0  0  0  0
   24.8260   10.6610   20.9430 C   0  0  0  0  0  0  0  0  0  0  0  0
   29.8540   10.9130   21.4510 C   0  0  0  0  0  0  0  0  0  0  0  0
   27.8830    9.7800   21.2080 C   0  0  0  0  0  0  0  0  0  0  0  0
   27.3000   10.8010   20.4650 C   0  0  0  0  0  0  0  0  0  0  0  0
   28.0930   11.9190   20.2200 C   0  0  0  0  0  0  0  0  0  0  0  0
   29.3850   11.9780   20.7130 C   0  0  0  0  0  0  0  0  0  0  0  0
    0.0000    0.0000    0.0000 H   0  0  0  0  0  0  0  0  0  0  0  0
    0.0000    0.0000    0.0000 H   0  0  0  0  0  0  0  0  0  0  0  0
    0.0000    0.0000    0.0000 H   0  0  0  0  0  0  0  0  0  0  0  0
    0.0000    0.0000    0.0000 H   0  0  0  0  0  0  0  0  0  0  0  0
    0.0000    0.0000    0.0000 H   0  0  0  0  0  0  0  0  0  0  0  0
    0.0000    0.0000    0.0000 H   0  0  0  0  0  0  0  0  0  0  0  0
    0.0000    0.0000    0.0000 H   0  0  0  0  0  0  0  0  0  0  0  0
    0.0000    0.0000    0.0000 H   0  0  0  0  0  0  0  0  0  0  0  0
    0.0000    0.0000    0.0000 H   0  0  0  0  0  0  0  0  0  0  0  0
    0.0000    0.0000    0.0000 H   0  0  0  0  0  0  0  0  0  0  0  0
    0.0000    0.0000    0.0000 H   0  0  0  0  0  0  0  0  0  0  0  0
    0.0000    0.0000    0.0000 H   0  0  0  0  0  0  0  0  0  0  0  0
    0.0000    0.0000    0.0000 H   0  0  0  0  0  0  0  0  0  0  0  0
   10.8529    5.1828   10.4749 C   0  0  0  0  0  0  0  0  0  0  0  0
   11.0887    4.5748    9.2789 C   0  0  0  0  0  0  0  0  0  0  0  0
    9.8455    4.3167    8.7416 C   0  0  0  0  0  0  0  0  0  0  0  0
    8.9375    4.7445    9.5672 O   0  0  0  0  0  0  0  0  0  0  0  0
    9.4992    5.2757   10.6291 C   0  0  0  0  0  0  0  0  0  0  0  0
   12.0541    4.3489    8.8532 H   0  0  0  0  0  0  0  0  0  0  0  0
    9.6712    3.8431    7.8020 H   0  0  0  0  0  0  0  0  0  0  0  0
    9.0003    5.7091   11.4746 H   0  0  0  0  0  0  0  0  0  0  0  0
  1  3  2  0
  1  4  1  0
  2  4  1  0
  1  5  1  0
  2  6  1  0
  5  6  1  0
  6  7  2  3
  5  8  1  0
  4 10  1  6
 10 11  2  0
 11 12  1  0
 12 13  2  0
 13 14  1  0
 10 15  1  0
 14 15  2  0
  9 16  2  0
  9 17  1  0
 14 18  1  0
 17 18  2  0
 18 19  1  0
 16 20  1  0
 19 20  2  0
  2 21  1  0
  7 22  1  0
  8 23  1  0
  8 24  1  0
  8 25  1  0
 11 26  1  0
 12 27  1  0
 13 28  1  0
 15 29  1  0
 16 30  1  0
 17 31  1  0
 19 32  1  0
 20 33  1  0
 34 35  1  0
 35 36  2  0
 36 37  1  0
 37 38  1  0
 38 34  2  0
 35 39  1  0
 36 40  1  0
 38 41  1  0
  4 34  1  0
M  END
>  <attachment_point>  (113) 
21

>  <score>  (113) 
<NA>

$$$$
4djw
     RDKit          3D

 44 47  0  0  0  0  0  0  0  0999 V2000
   22.4950   11.8750   22.5810 C   0  0  0  0  0  0  0  0  0  0  0  0
   22.5380    9.4930   22.4640 N   0  0  0  0  0  0  0  0  0  0  0  0
   22.3600   13.0630   22.3480 O   0  0  0  0  0  0  0  0  0  0  0  0
   22.3390   10.6680   21.5610 C   0  0  2  0  0  0  0  0  0  0  0  0
   22.7860   11.3350   23.8120 N   0  0  0  0  0  0  0  0  0  0  0  0
   22.7800    9.9140   23.7010 C   0  0  0  0  0  0  0  0  0  0  0  0
   22.9970    9.1110   24.7490 N   0  0  0  0  0  0  0  0  0  0  0  0
   23.0220   12.1410   25.0180 C   0  0  0  0  0  0  0  0  0  0  0  0
   29.1260    9.8230   21.7090 N   0  0  0  0  0  0  0  0  0  0  0  0
   23.4880   10.6920   20.5300 C   0  0  0  0  0  0  0  0  0  0  0  0
   23.2110   10.7890   19.1730 C   0  0  0  0  0  0  0  0  0  0  0  0
   24.2350   10.8650   18.2430 C   0  0  0  0  0  0  0  0  0  0  0  0
   25.5500   10.8410   18.6560 C   0  0  0  0  0  0  0  0  0  0  0  0
   25.8710   10.7460   20.0070 C   0  0  0  0  0  0  0  0  0  0  0  0
   24.8260   10.6610   20.9430 C   0  0  0  0  0  0  0  0  0  0  0  0
   29.8540   10.9130   21.4510 C   0  0  0  0  0  0  0  0  0  0  0  0
   27.8830    9.7800   21.2080 C   0  0  0  0  0  0  0  0  0  0  0  0
   27.3000   10.8010   20.4650 C   0  0  0  0  0  0  0  0  0  0  0  0
   28.0930   11.9190   20.2200 C   0  0  0  0  0  0  0  0  0  0  0  0
   29.3850   11.9780   20.7130 C   0  0  0  0  0  0  0  0  0  0  0  0
    0.0000    0.0000    0.0000 H   0  0  0  0  0  0  0  0  0  0  0  0
    0.0000    0.0000    0.0000 H   0  0  0  0  0  0  0  0  0  0  0  0
    0.0000    0.0000    0.0000 H   0  0  0  0  0  0  0  0  0  0  0  0
    0.0000    0.0000    0.0000 H   0  0  0  0  0  0  0  0  0  0  0  0
    0.0000    0.0000    0.0000 H   0  0  0  0  0  0  0  0  0  0  0  0
    0.0000    0.0000    0.0000 H   0  0  0  0  0  0  0  0  0  0  0  0
    0.0000    0.0000    0.0000 H   0  0  0  0  0  0  0  0  0  0  0  0
    0.0000    0.0000    0.0000 H   0  0  0  0  0  0  0  0  0  0  0  0
    0.0000    0.0000    0.0000 H   0  0  0  0  0  0  0  0  0  0  0  0
    0.0000    0.0000    0.0000 H   0  0  0  0  0  0  0  0  0  0  0  0
    0.0000    0.0000    0.0000 H   0  0  0  0  0  0  0  0  0  0  0  0
    0.0000    0.0000    0.0000 H   0  0  0  0  0  0  0  0  0  0  0  0
    0.0000    0.0000    0.0000 H   0  0  0  0  0  0  0  0  0  0  0  0
   10.8945    5.2027   10.5151 C   0  0  0  0  0  0  0  0  0  0  0  0
   11.4025    5.0318    9.1449 N   0  0  0  0  0  0  0  0  0  0  0  0
   11.4110    5.9594    8.1705 C   0  0  0  0  0  0  0  0  0  0  0  0
   11.9648    5.4380    7.0196 C   0  0  0  0  0  0  0  0  0  0  0  0
   12.2916    4.1692    7.3230 N   0  0  0  0  0  0  0  0  0  0  0  0
   11.9493    3.9228    8.6157 C   0  0  0  0  0  0  0  0  0  0  0  0
   10.0326    5.8978   10.4219 H   0  0  0  0  0  0  0  0  0  0  0  0
   10.5067    4.1806   10.7975 H   0  0  0  0  0  0  0  0  0  0  0  0
   11.0450    6.9696    8.2510 H   0  0  0  0  0  0  0  0  0  0  0  0
   12.1112    5.9323    6.0688 H   0  0  0  0  0  0  0  0  0  0  0  0
   12.0792    3.0069    9.1573 H   0  0  0  0  0  0  0  0  0  0  0  0
  1  3  2  0
  1  4  1  0
  2  4  1  0
  1  5  1  0
  2  6  1  0
  5  6  1  0
  6  7  2  3
  5  8  1  0
  4 10  1  0
 10 11  2  0
 11 12  1  0
 12 13  2  0
 13 14  1  0
 10 15  1  0
 14 15  2  0
  9 16  2  0
  9 17  1  0
 14 18  1  0
 17 18  2  0
 18 19  1  0
 16 20  1  0
 19 20  2  0
  2 21  1  0
  7 22  1  0
  8 23  1  0
  8 24  1  0
  8 25  1  0
 11 26  1  0
 12 27  1  0
 13 28  1  0
 15 29  1  0
 16 30  1  0
 17 31  1  0
 19 32  1  0
 20 33  1  0
 34 35  1  0
 35 36  1  0
 36 37  2  0
 37 38  1  0
 38 39  2  0
 39 35  1  0
 34 40  1  0
 34 41  1  0
 36 42  1  0
 37 43  1  0
 39 44  1  0
  4 34  1  6
M  END
>  <attachment_point>  (114) 
21

>  <score>  (114) 
<NA>

$$$$
4djw
     RDKit          3D

 41 44  0  0  0  0  0  0  0  0999 V2000
   22.4950   11.8750   22.5810 C   0  0  0  0  0  0  0  0  0  0  0  0
   22.5380    9.4930   22.4640 N   0  0  0  0  0  0  0  0  0  0  0  0
   22.3600   13.0630   22.3480 O   0  0  0  0  0  0  0  0  0  0  0  0
   22.3390   10.6680   21.5610 C   0  0  2  0  0  0  0  0  0  0  0  0
   22.7860   11.3350   23.8120 N   0  0  0  0  0  0  0  0  0  0  0  0
   22.7800    9.9140   23.7010 C   0  0  0  0  0  0  0  0  0  0  0  0
   22.9970    9.1110   24.7490 N   0  0  0  0  0  0  0  0  0  0  0  0
   23.0220   12.1410   25.0180 C   0  0  0  0  0  0  0  0  0  0  0  0
   29.1260    9.8230   21.7090 N   0  0  0  0  0  0  0  0  0  0  0  0
   23.4880   10.6920   20.5300 C   0  0  0  0  0  0  0  0  0  0  0  0
   23.2110   10.7890   19.1730 C   0  0  0  0  0  0  0  0  0  0  0  0
   24.2350   10.8650   18.2430 C   0  0  0  0  0  0  0  0  0  0  0  0
   25.5500   10.8410   18.6560 C   0  0  0  0  0  0  0  0  0  0  0  0
   25.8710   10.7460   20.0070 C   0  0  0  0  0  0  0  0  0  0  0  0
   24.8260   10.6610   20.9430 C   0  0  0  0  0  0  0  0  0  0  0  0
   29.8540   10.9130   21.4510 C   0  0  0  0  0  0  0  0  0  0  0  0
   27.8830    9.7800   21.2080 C   0  0  0  0  0  0  0  0  0  0  0  0
   27.3000   10.8010   20.4650 C   0  0  0  0  0  0  0  0  0  0  0  0
   28.0930   11.9190   20.2200 C   0  0  0  0  0  0  0  0  0  0  0  0
   29.3850   11.9780   20.7130 C   0  0  0  0  0  0  0  0  0  0  0  0
    0.0000    0.0000    0.0000 H   0  0  0  0  0  0  0  0  0  0  0  0
    0.0000    0.0000    0.0000 H   0  0  0  0  0  0  0  0  0  0  0  0
    0.0000    0.0000    0.0000 H   0  0  0  0  0  0  0  0  0  0  0  0
    0.0000    0.0000    0.0000 H   0  0  0  0  0  0  0  0  0  0  0  0
    0.0000    0.0000    0.0000 H   0  0  0  0  0  0  0  0  0  0  0  0
    0.0000    0.0000    0.0000 H   0  0  0  0  0  0  0  0  0  0  0  0
    0.0000    0.0000    0.0000 H   0  0  0  0  0  0  0  0  0  0  0  0
    0.0000    0.0000    0.0000 H   0  0  0  0  0  0  0  0  0  0  0  0
    0.0000    0.0000    0.0000 H   0  0  0  0  0  0  0  0  0  0  0  0
    0.0000    0.0000    0.0000 H   0  0  0  0  0  0  0  0  0  0  0  0
    0.0000    0.0000    0.0000 H   0  0  0  0  0  0  0  0  0  0  0  0
    0.0000    0.0000    0.0000 H   0  0  0  0  0  0  0  0  0  0  0  0
    0.0000    0.0000    0.0000 H   0  0  0  0  0  0  0  0  0  0  0  0
   10.8488    5.1809   10.4710 C   0  0  0  0  0  0  0  0  0  0  0  0
   11.1919    4.5389    9.3314 C   0  0  0  0  0  0  0  0  0  0  0  0
   10.1718    4.1428    8.5130 C   0  0  0  0  0  0  0  0  0  0  0  0
    8.7877    4.6705    9.3467 S   0  0  0  0  0  0  0  0  0  0  0  0
    9.5179    5.3787   10.7076 C   0  0  0  0  0  0  0  0  0  0  0  0
   12.2845    4.3671    9.1201 H   0  0  0  0  0  0  0  0  0  0  0  0
   10.2963    3.6174    7.5656 H   0  0  0  0  0  0  0  0  0  0  0  0
    9.1060    5.8751   11.5752 H   0  0  0  0  0  0  0  0  0  0  0  0
  1  3  2  0
  1  4  1  0
  2  4  1  0
  1  5  1  0
  2  6  1  0
  5  6  1  0
  6  7  2  3
  5  8  1  0
  4 10  1  6
 10 11  2  0
 11 12  1  0
 12 13  2  0
 13 14  1  0
 10 15  1  0
 14 15  2  0
  9 16  2  0
  9 17  1  0
 14 18  1  0
 17 18  2  0
 18 19  1  0
 16 20  1  0
 19 20  2  0
  2 21  1  0
  7 22  1  0
  8 23  1  0
  8 24  1  0
  8 25  1  0
 11 26  1  0
 12 27  1  0
 13 28  1  0
 15 29  1  0
 16 30  1  0
 17 31  1  0
 19 32  1  0
 20 33  1  0
 34 35  1  0
 35 36  2  0
 36 37  1  0
 37 38  1  0
 38 34  2  0
 35 39  1  0
 36 40  1  0
 38 41  1  0
  4 34  1  0
M  END
>  <attachment_point>  (115) 
21

>  <score>  (115) 
<NA>

$$$$
4djw
     RDKit          3D

 47 50  0  0  0  0  0  0  0  0999 V2000
   22.4950   11.8750   22.5810 C   0  0  0  0  0  0  0  0  0  0  0  0
   22.5380    9.4930   22.4640 N   0  0  0  0  0  0  0  0  0  0  0  0
   22.3600   13.0630   22.3480 O   0  0  0  0  0  0  0  0  0  0  0  0
   22.3390   10.6680   21.5610 C   0  0  2  0  0  0  0  0  0  0  0  0
   22.7860   11.3350   23.8120 N   0  0  0  0  0  0  0  0  0  0  0  0
   22.7800    9.9140   23.7010 C   0  0  0  0  0  0  0  0  0  0  0  0
   22.9970    9.1110   24.7490 N   0  0  0  0  0  0  0  0  0  0  0  0
   23.0220   12.1410   25.0180 C   0  0  0  0  0  0  0  0  0  0  0  0
   29.1260    9.8230   21.7090 N   0  0  0  0  0  0  0  0  0  0  0  0
   23.4880   10.6920   20.5300 C   0  0  0  0  0  0  0  0  0  0  0  0
   23.2110   10.7890   19.1730 C   0  0  0  0  0  0  0  0  0  0  0  0
   24.2350   10.8650   18.2430 C   0  0  0  0  0  0  0  0  0  0  0  0
   25.5500   10.8410   18.6560 C   0  0  0  0  0  0  0  0  0  0  0  0
   25.8710   10.7460   20.0070 C   0  0  0  0  0  0  0  0  0  0  0  0
   24.8260   10.6610   20.9430 C   0  0  0  0  0  0  0  0  0  0  0  0
   29.8540   10.9130   21.4510 C   0  0  0  0  0  0  0  0  0  0  0  0
   27.8830    9.7800   21.2080 C   0  0  0  0  0  0  0  0  0  0  0  0
   27.3000   10.8010   20.4650 C   0  0  0  0  0  0  0  0  0  0  0  0
   28.0930   11.9190   20.2200 C   0  0  0  0  0  0  0  0  0  0  0  0
   29.3850   11.9780   20.7130 C   0  0  0  0  0  0  0  0  0  0  0  0
    0.0000    0.0000    0.0000 H   0  0  0  0  0  0  0  0  0  0  0  0
    0.0000    0.0000    0.0000 H   0  0  0  0  0  0  0  0  0  0  0  0
    0.0000    0.0000    0.0000 H   0  0  0  0  0  0  0  0  0  0  0  0
    0.0000    0.0000    0.0000 H   0  0  0  0  0  0  0  0  0  0  0  0
    0.0000    0.0000    0.0000 H   0  0  0  0  0  0  0  0  0  0  0  0
    0.0000    0.0000    0.0000 H   0  0  0  0  0  0  0  0  0  0  0  0
    0.0000    0.0000    0.0000 H   0  0  0  0  0  0  0  0  0  0  0  0
    0.0000    0.0000    0.0000 H   0  0  0  0  0  0  0  0  0  0  0  0
    0.0000    0.0000    0.0000 H   0  0  0  0  0  0  0  0  0  0  0  0
    0.0000    0.0000    0.0000 H   0  0  0  0  0  0  0  0  0  0  0  0
    0.0000    0.0000    0.0000 H   0  0  0  0  0  0  0  0  0  0  0  0
    0.0000    0.0000    0.0000 H   0  0  0  0  0  0  0  0  0  0  0  0
    0.0000    0.0000    0.0000 H   0  0  0  0  0  0  0  0  0  0  0  0
   10.8508    5.1818   10.4729 C   0  0  0  0  0  0  0  0  0  0  0  0
   11.0220    3.8977   10.0609 C   0  0  0  0  0  0  0  0  0  0  0  0
   10.0745    3.4403    9.1442 C   0  0  0  0  0  0  0  0  0  0  0  0
    9.0402    4.2202    8.6845 C   0  0  0  0  0  0  0  0  0  0  0  0
    8.0834    3.6786    7.7253 C   0  0  0  0  0  0  0  0  0  0  0  0
    8.2402    2.4966    7.3454 O   0  0  0  0  0  0  0  0  0  0  0  0
    7.0175    4.3940    7.2142 O   0  0  0  0  0  0  0  0  0  0  0  0
    8.9210    5.5184    9.1422 C   0  0  0  0  0  0  0  0  0  0  0  0
    9.8495    6.0147   10.0607 C   0  0  0  0  0  0  0  0  0  0  0  0
   11.8217    3.2736   10.4074 H   0  0  0  0  0  0  0  0  0  0  0  0
   10.1509    2.4288    8.7751 H   0  0  0  0  0  0  0  0  0  0  0  0
    6.6592    4.2403    6.2596 H   0  0  0  0  0  0  0  0  0  0  0  0
    8.1081    6.1176    8.7750 H   0  0  0  0  0  0  0  0  0  0  0  0
    9.7538    7.0424   10.4220 H   0  0  0  0  0  0  0  0  0  0  0  0
  1  3  2  0
  1  4  1  0
  2  4  1  0
  1  5  1  0
  2  6  1  0
  5  6  1  0
  6  7  2  3
  5  8  1  0
  4 10  1  6
 10 11  2  0
 11 12  1  0
 12 13  2  0
 13 14  1  0
 10 15  1  0
 14 15  2  0
  9 16  2  0
  9 17  1  0
 14 18  1  0
 17 18  2  0
 18 19  1  0
 16 20  1  0
 19 20  2  0
  2 21  1  0
  7 22  1  0
  8 23  1  0
  8 24  1  0
  8 25  1  0
 11 26  1  0
 12 27  1  0
 13 28  1  0
 15 29  1  0
 16 30  1  0
 17 31  1  0
 19 32  1  0
 20 33  1  0
 34 35  2  0
 35 36  1  0
 36 37  2  0
 37 38  1  0
 38 39  2  0
 38 40  1  0
 37 41  1  0
 41 42  2  0
 42 34  1  0
 35 43  1  0
 36 44  1  0
 40 45  1  0
 41 46  1  0
 42 47  1  0
  4 34  1  0
M  END
>  <attachment_point>  (116) 
21

>  <score>  (116) 
<NA>

$$$$
4djw
     RDKit          3D

 38 40  0  0  0  0  0  0  0  0999 V2000
   22.4950   11.8750   22.5810 C   0  0  0  0  0  0  0  0  0  0  0  0
   22.5380    9.4930   22.4640 N   0  0  0  0  0  0  0  0  0  0  0  0
   22.3600   13.0630   22.3480 O   0  0  0  0  0  0  0  0  0  0  0  0
   22.3390   10.6680   21.5610 C   0  0  2  0  0  0  0  0  0  0  0  0
   22.7860   11.3350   23.8120 N   0  0  0  0  0  0  0  0  0  0  0  0
   22.7800    9.9140   23.7010 C   0  0  0  0  0  0  0  0  0  0  0  0
   22.9970    9.1110   24.7490 N   0  0  0  0  0  0  0  0  0  0  0  0
   23.0220   12.1410   25.0180 C   0  0  0  0  0  0  0  0  0  0  0  0
   29.1260    9.8230   21.7090 N   0  0  0  0  0  0  0  0  0  0  0  0
   23.4880   10.6920   20.5300 C   0  0  0  0  0  0  0  0  0  0  0  0
   23.2110   10.7890   19.1730 C   0  0  0  0  0  0  0  0  0  0  0  0
   24.2350   10.8650   18.2430 C   0  0  0  0  0  0  0  0  0  0  0  0
   25.5500   10.8410   18.6560 C   0  0  0  0  0  0  0  0  0  0  0  0
   25.8710   10.7460   20.0070 C   0  0  0  0  0  0  0  0  0  0  0  0
   24.8260   10.6610   20.9430 C   0  0  0  0  0  0  0  0  0  0  0  0
   29.8540   10.9130   21.4510 C   0  0  0  0  0  0  0  0  0  0  0  0
   27.8830    9.7800   21.2080 C   0  0  0  0  0  0  0  0  0  0  0  0
   27.3000   10.8010   20.4650 C   0  0  0  0  0  0  0  0  0  0  0  0
   28.0930   11.9190   20.2200 C   0  0  0  0  0  0  0  0  0  0  0  0
   29.3850   11.9780   20.7130 C   0  0  0  0  0  0  0  0  0  0  0  0
    0.0000    0.0000    0.0000 H   0  0  0  0  0  0  0  0  0  0  0  0
    0.0000    0.0000    0.0000 H   0  0  0  0  0  0  0  0  0  0  0  0
    0.0000    0.0000    0.0000 H   0  0  0  0  0  0  0  0  0  0  0  0
    0.0000    0.0000    0.0000 H   0  0  0  0  0  0  0  0  0  0  0  0
    0.0000    0.0000    0.0000 H   0  0  0  0  0  0  0  0  0  0  0  0
    0.0000    0.0000    0.0000 H   0  0  0  0  0  0  0  0  0  0  0  0
    0.0000    0.0000    0.0000 H   0  0  0  0  0  0  0  0  0  0  0  0
    0.0000    0.0000    0.0000 H   0  0  0  0  0  0  0  0  0  0  0  0
    0.0000    0.0000    0.0000 H   0  0  0  0  0  0  0  0  0  0  0  0
    0.0000    0.0000    0.0000 H   0  0  0  0  0  0  0  0  0  0  0  0
    0.0000    0.0000    0.0000 H   0  0  0  0  0  0  0  0  0  0  0  0
    0.0000    0.0000    0.0000 H   0  0  0  0  0  0  0  0  0  0  0  0
    0.0000    0.0000    0.0000 H   0  0  0  0  0  0  0  0  0  0  0  0
   10.8213    5.1677   10.4445 B   0  0  0  0  0  0  0  0  0  0  0  0
   11.4273    4.5508    9.2570 O   0  0  0  0  0  0  0  0  0  0  0  0
    9.8856    6.2643   10.1937 O   0  0  0  0  0  0  0  0  0  0  0  0
   11.5502    5.2372    8.5709 H   0  0  0  0  0  0  0  0  0  0  0  0
    9.0118    5.9685   10.5651 H   0  0  0  0  0  0  0  0  0  0  0  0
  1  3  2  0
  1  4  1  0
  2  4  1  0
  1  5  1  0
  2  6  1  0
  5  6  1  0
  6  7  2  3
  5  8  1  0
  4 10  1  0
 10 11  2  0
 11 12  1  0
 12 13  2  0
 13 14  1  0
 10 15  1  0
 14 15  2  0
  9 16  2  0
  9 17  1  0
 14 18  1  0
 17 18  2  0
 18 19  1  0
 16 20  1  0
 19 20  2  0
  2 21  1  0
  7 22  1  0
  8 23  1  0
  8 24  1  0
  8 25  1  0
 11 26  1  0
 12 27  1  0
 13 28  1  0
 15 29  1  0
 16 30  1  0
 17 31  1  0
 19 32  1  0
 20 33  1  0
 34 35  1  0
 34 36  1  0
 35 37  1  0
 36 38  1  0
  4 34  1  6
M  END
>  <attachment_point>  (117) 
21

>  <score>  (117) 
<NA>

$$$$
4djw
     RDKit          3D

 41 43  0  0  0  0  0  0  0  0999 V2000
   22.4950   11.8750   22.5810 C   0  0  0  0  0  0  0  0  0  0  0  0
   22.5380    9.4930   22.4640 N   0  0  0  0  0  0  0  0  0  0  0  0
   22.3600   13.0630   22.3480 O   0  0  0  0  0  0  0  0  0  0  0  0
   22.3390   10.6680   21.5610 C   0  0  2  0  0  0  0  0  0  0  0  0
   22.7860   11.3350   23.8120 N   0  0  0  0  0  0  0  0  0  0  0  0
   22.7800    9.9140   23.7010 C   0  0  0  0  0  0  0  0  0  0  0  0
   22.9970    9.1110   24.7490 N   0  0  0  0  0  0  0  0  0  0  0  0
   23.0220   12.1410   25.0180 C   0  0  0  0  0  0  0  0  0  0  0  0
   29.1260    9.8230   21.7090 N   0  0  0  0  0  0  0  0  0  0  0  0
   23.4880   10.6920   20.5300 C   0  0  0  0  0  0  0  0  0  0  0  0
   23.2110   10.7890   19.1730 C   0  0  0  0  0  0  0  0  0  0  0  0
   24.2350   10.8650   18.2430 C   0  0  0  0  0  0  0  0  0  0  0  0
   25.5500   10.8410   18.6560 C   0  0  0  0  0  0  0  0  0  0  0  0
   25.8710   10.7460   20.0070 C   0  0  0  0  0  0  0  0  0  0  0  0
   24.8260   10.6610   20.9430 C   0  0  0  0  0  0  0  0  0  0  0  0
   29.8540   10.9130   21.4510 C   0  0  0  0  0  0  0  0  0  0  0  0
   27.8830    9.7800   21.2080 C   0  0  0  0  0  0  0  0  0  0  0  0
   27.3000   10.8010   20.4650 C   0  0  0  0  0  0  0  0  0  0  0  0
   28.0930   11.9190   20.2200 C   0  0  0  0  0  0  0  0  0  0  0  0
   29.3850   11.9780   20.7130 C   0  0  0  0  0  0  0  0  0  0  0  0
    0.0000    0.0000    0.0000 H   0  0  0  0  0  0  0  0  0  0  0  0
    0.0000    0.0000    0.0000 H   0  0  0  0  0  0  0  0  0  0  0  0
    0.0000    0.0000    0.0000 H   0  0  0  0  0  0  0  0  0  0  0  0
    0.0000    0.0000    0.0000 H   0  0  0  0  0  0  0  0  0  0  0  0
    0.0000    0.0000    0.0000 H   0  0  0  0  0  0  0  0  0  0  0  0
    0.0000    0.0000    0.0000 H   0  0  0  0  0  0  0  0  0  0  0  0
    0.0000    0.0000    0.0000 H   0  0  0  0  0  0  0  0  0  0  0  0
    0.0000    0.0000    0.0000 H   0  0  0  0  0  0  0  0  0  0  0  0
    0.0000    0.0000    0.0000 H   0  0  0  0  0  0  0  0  0  0  0  0
    0.0000    0.0000    0.0000 H   0  0  0  0  0  0  0  0  0  0  0  0
    0.0000    0.0000    0.0000 H   0  0  0  0  0  0  0  0  0  0  0  0
    0.0000    0.0000    0.0000 H   0  0  0  0  0  0  0  0  0  0  0  0
    0.0000    0.0000    0.0000 H   0  0  0  0  0  0  0  0  0  0  0  0
   10.9651    5.2364   10.5832 O   0  0  0  0  0  0  0  0  0  0  0  0
    9.9588    6.0511   10.1001 C   0  0  0  0  0  0  0  0  0  0  0  0
    9.0772    5.3500    9.1437 C   0  0  0  0  0  0  0  0  0  0  0  0
    9.2442    4.1557    8.8248 O   0  0  0  0  0  0  0  0  0  0  0  0
    8.0234    6.0490    8.5797 O   0  0  0  0  0  0  0  0  0  0  0  0
    9.3891    6.4188   10.9639 H   0  0  0  0  0  0  0  0  0  0  0  0
   10.4570    6.9470    9.6333 H   0  0  0  0  0  0  0  0  0  0  0  0
    7.1543    5.6033    8.3194 H   0  0  0  0  0  0  0  0  0  0  0  0
  1  3  2  0
  1  4  1  0
  2  4  1  0
  1  5  1  0
  2  6  1  0
  5  6  1  0
  6  7  2  3
  5  8  1  0
  4 10  1  0
 10 11  2  0
 11 12  1  0
 12 13  2  0
 13 14  1  0
 10 15  1  0
 14 15  2  0
  9 16  2  0
  9 17  1  0
 14 18  1  0
 17 18  2  0
 18 19  1  0
 16 20  1  0
 19 20  2  0
  2 21  1  0
  7 22  1  0
  8 23  1  0
  8 24  1  0
  8 25  1  0
 11 26  1  0
 12 27  1  0
 13 28  1  0
 15 29  1  0
 16 30  1  0
 17 31  1  0
 19 32  1  0
 20 33  1  0
 34 35  1  0
 35 36  1  0
 36 37  2  0
 36 38  1  0
 35 39  1  0
 35 40  1  0
 38 41  1  0
  4 34  1  6
M  END
>  <attachment_point>  (118) 
21

>  <score>  (118) 
<NA>

$$$$
4djw
     RDKit          3D

 38 40  0  0  0  0  0  0  0  0999 V2000
   22.4950   11.8750   22.5810 C   0  0  0  0  0  0  0  0  0  0  0  0
   22.5380    9.4930   22.4640 N   0  0  0  0  0  0  0  0  0  0  0  0
   22.3600   13.0630   22.3480 O   0  0  0  0  0  0  0  0  0  0  0  0
   22.3390   10.6680   21.5610 C   0  0  2  0  0  0  0  0  0  0  0  0
   22.7860   11.3350   23.8120 N   0  0  0  0  0  0  0  0  0  0  0  0
   22.7800    9.9140   23.7010 C   0  0  0  0  0  0  0  0  0  0  0  0
   22.9970    9.1110   24.7490 N   0  0  0  0  0  0  0  0  0  0  0  0
   23.0220   12.1410   25.0180 C   0  0  0  0  0  0  0  0  0  0  0  0
   29.1260    9.8230   21.7090 N   0  0  0  0  0  0  0  0  0  0  0  0
   23.4880   10.6920   20.5300 C   0  0  0  0  0  0  0  0  0  0  0  0
   23.2110   10.7890   19.1730 C   0  0  0  0  0  0  0  0  0  0  0  0
   24.2350   10.8650   18.2430 C   0  0  0  0  0  0  0  0  0  0  0  0
   25.5500   10.8410   18.6560 C   0  0  0  0  0  0  0  0  0  0  0  0
   25.8710   10.7460   20.0070 C   0  0  0  0  0  0  0  0  0  0  0  0
   24.8260   10.6610   20.9430 C   0  0  0  0  0  0  0  0  0  0  0  0
   29.8540   10.9130   21.4510 C   0  0  0  0  0  0  0  0  0  0  0  0
   27.8830    9.7800   21.2080 C   0  0  0  0  0  0  0  0  0  0  0  0
   27.3000   10.8010   20.4650 C   0  0  0  0  0  0  0  0  0  0  0  0
   28.0930   11.9190   20.2200 C   0  0  0  0  0  0  0  0  0  0  0  0
   29.3850   11.9780   20.7130 C   0  0  0  0  0  0  0  0  0  0  0  0
    0.0000    0.0000    0.0000 H   0  0  0  0  0  0  0  0  0  0  0  0
    0.0000    0.0000    0.0000 H   0  0  0  0  0  0  0  0  0  0  0  0
    0.0000    0.0000    0.0000 H   0  0  0  0  0  0  0  0  0  0  0  0
    0.0000    0.0000    0.0000 H   0  0  0  0  0  0  0  0  0  0  0  0
    0.0000    0.0000    0.0000 H   0  0  0  0  0  0  0  0  0  0  0  0
    0.0000    0.0000    0.0000 H   0  0  0  0  0  0  0  0  0  0  0  0
    0.0000    0.0000    0.0000 H   0  0  0  0  0  0  0  0  0  0  0  0
    0.0000    0.0000    0.0000 H   0  0  0  0  0  0  0  0  0  0  0  0
    0.0000    0.0000    0.0000 H   0  0  0  0  0  0  0  0  0  0  0  0
    0.0000    0.0000    0.0000 H   0  0  0  0  0  0  0  0  0  0  0  0
    0.0000    0.0000    0.0000 H   0  0  0  0  0  0  0  0  0  0  0  0
    0.0000    0.0000    0.0000 H   0  0  0  0  0  0  0  0  0  0  0  0
    0.0000    0.0000    0.0000 H   0  0  0  0  0  0  0  0  0  0  0  0
   10.8941    5.2025   10.5147 C   0  0  0  0  0  0  0  0  0  0  0  0
   11.2548    4.7255    9.3293 C   0  0  0  0  0  0  0  0  0  0  0  0
    9.8366    5.2332   10.7590 H   0  0  0  0  0  0  0  0  0  0  0  0
   12.3037    4.6829    9.0584 H   0  0  0  0  0  0  0  0  0  0  0  0
   10.5171    4.3733    8.6175 H   0  0  0  0  0  0  0  0  0  0  0  0
  1  3  2  0
  1  4  1  0
  2  4  1  0
  1  5  1  0
  2  6  1  0
  5  6  1  0
  6  7  2  3
  5  8  1  0
  4 10  1  6
 10 11  2  0
 11 12  1  0
 12 13  2  0
 13 14  1  0
 10 15  1  0
 14 15  2  0
  9 16  2  0
  9 17  1  0
 14 18  1  0
 17 18  2  0
 18 19  1  0
 16 20  1  0
 19 20  2  0
  2 21  1  0
  7 22  1  0
  8 23  1  0
  8 24  1  0
  8 25  1  0
 11 26  1  0
 12 27  1  0
 13 28  1  0
 15 29  1  0
 16 30  1  0
 17 31  1  0
 19 32  1  0
 20 33  1  0
 34 35  2  3
 34 36  1  0
 35 37  1  0
 35 38  1  0
  4 34  1  0
M  END
>  <attachment_point>  (119) 
21

>  <score>  (119) 
<NA>

$$$$
4djw
     RDKit          3D

 51 54  0  0  0  0  0  0  0  0999 V2000
   22.4950   11.8750   22.5810 C   0  0  0  0  0  0  0  0  0  0  0  0
   22.5380    9.4930   22.4640 N   0  0  0  0  0  0  0  0  0  0  0  0
   22.3600   13.0630   22.3480 O   0  0  0  0  0  0  0  0  0  0  0  0
   22.3390   10.6680   21.5610 C   0  0  2  0  0  0  0  0  0  0  0  0
   22.7860   11.3350   23.8120 N   0  0  0  0  0  0  0  0  0  0  0  0
   22.7800    9.9140   23.7010 C   0  0  0  0  0  0  0  0  0  0  0  0
   22.9970    9.1110   24.7490 N   0  0  0  0  0  0  0  0  0  0  0  0
   23.0220   12.1410   25.0180 C   0  0  0  0  0  0  0  0  0  0  0  0
   29.1260    9.8230   21.7090 N   0  0  0  0  0  0  0  0  0  0  0  0
   23.4880   10.6920   20.5300 C   0  0  0  0  0  0  0  0  0  0  0  0
   23.2110   10.7890   19.1730 C   0  0  0  0  0  0  0  0  0  0  0  0
   24.2350   10.8650   18.2430 C   0  0  0  0  0  0  0  0  0  0  0  0
   25.5500   10.8410   18.6560 C   0  0  0  0  0  0  0  0  0  0  0  0
   25.8710   10.7460   20.0070 C   0  0  0  0  0  0  0  0  0  0  0  0
   24.8260   10.6610   20.9430 C   0  0  0  0  0  0  0  0  0  0  0  0
   29.8540   10.9130   21.4510 C   0  0  0  0  0  0  0  0  0  0  0  0
   27.8830    9.7800   21.2080 C   0  0  0  0  0  0  0  0  0  0  0  0
   27.3000   10.8010   20.4650 C   0  0  0  0  0  0  0  0  0  0  0  0
   28.0930   11.9190   20.2200 C   0  0  0  0  0  0  0  0  0  0  0  0
   29.3850   11.9780   20.7130 C   0  0  0  0  0  0  0  0  0  0  0  0
    0.0000    0.0000    0.0000 H   0  0  0  0  0  0  0  0  0  0  0  0
    0.0000    0.0000    0.0000 H   0  0  0  0  0  0  0  0  0  0  0  0
    0.0000    0.0000    0.0000 H   0  0  0  0  0  0  0  0  0  0  0  0
    0.0000    0.0000    0.0000 H   0  0  0  0  0  0  0  0  0  0  0  0
    0.0000    0.0000    0.0000 H   0  0  0  0  0  0  0  0  0  0  0  0
    0.0000    0.0000    0.0000 H   0  0  0  0  0  0  0  0  0  0  0  0
    0.0000    0.0000    0.0000 H   0  0  0  0  0  0  0  0  0  0  0  0
    0.0000    0.0000    0.0000 H   0  0  0  0  0  0  0  0  0  0  0  0
    0.0000    0.0000    0.0000 H   0  0  0  0  0  0  0  0  0  0  0  0
    0.0000    0.0000    0.0000 H   0  0  0  0  0  0  0  0  0  0  0  0
    0.0000    0.0000    0.0000 H   0  0  0  0  0  0  0  0  0  0  0  0
    0.0000    0.0000    0.0000 H   0  0  0  0  0  0  0  0  0  0  0  0
    0.0000    0.0000    0.0000 H   0  0  0  0  0  0  0  0  0  0  0  0
   10.7900    5.1528   10.4142 C   0  0  0  0  0  0  0  0  0  0  0  0
   10.1080    6.0497   10.0232 O   0  0  0  0  0  0  0  0  0  0  0  0
   10.9123    3.7988   10.2235 N   0  0  0  0  0  0  0  0  0  0  0  0
   11.9206    3.0349   10.9246 C   0  0  0  0  0  0  0  0  0  0  0  0
   11.3795    1.7151   11.4176 C   0  0  0  0  0  0  0  0  0  0  0  0
   10.8614    0.8897   10.2873 C   0  0  0  0  0  0  0  0  0  0  0  0
   10.5171    1.6736    9.0618 C   0  0  0  0  0  0  0  0  0  0  0  0
   10.0623    3.0791    9.3343 C   0  0  0  0  0  0  0  0  0  0  0  0
   12.7170    2.8142   10.1878 H   0  0  0  0  0  0  0  0  0  0  0  0
   12.3149    3.5896   11.7976 H   0  0  0  0  0  0  0  0  0  0  0  0
   12.2390    1.1782   11.8913 H   0  0  0  0  0  0  0  0  0  0  0  0
   10.6188    1.8476   12.2156 H   0  0  0  0  0  0  0  0  0  0  0  0
   11.5994    0.1081    9.9991 H   0  0  0  0  0  0  0  0  0  0  0  0
    9.9614    0.3182   10.6493 H   0  0  0  0  0  0  0  0  0  0  0  0
   11.4172    1.7005    8.3984 H   0  0  0  0  0  0  0  0  0  0  0  0
    9.6813    1.1516    8.5514 H   0  0  0  0  0  0  0  0  0  0  0  0
    8.9977    3.0432    9.6401 H   0  0  0  0  0  0  0  0  0  0  0  0
   10.0767    3.6067    8.3339 H   0  0  0  0  0  0  0  0  0  0  0  0
  1  3  2  0
  1  4  1  0
  2  4  1  0
  1  5  1  0
  2  6  1  0
  5  6  1  0
  6  7  2  3
  5  8  1  0
  4 10  1  0
 10 11  2  0
 11 12  1  0
 12 13  2  0
 13 14  1  0
 10 15  1  0
 14 15  2  0
  9 16  2  0
  9 17  1  0
 14 18  1  0
 17 18  2  0
 18 19  1  0
 16 20  1  0
 19 20  2  0
  2 21  1  0
  7 22  1  0
  8 23  1  0
  8 24  1  0
  8 25  1  0
 11 26  1  0
 12 27  1  0
 13 28  1  0
 15 29  1  0
 16 30  1  0
 17 31  1  0
 19 32  1  0
 20 33  1  0
 34 35  2  0
 34 36  1  0
 36 37  1  0
 37 38  1  0
 38 39  1  0
 39 40  1  0
 40 41  1  0
 41 36  1  0
 37 42  1  0
 37 43  1  0
 38 44  1  0
 38 45  1  0
 39 46  1  0
 39 47  1  0
 40 48  1  0
 40 49  1  0
 41 50  1  0
 41 51  1  0
  4 34  1  6
M  END
>  <attachment_point>  (120) 
21

>  <score>  (120) 
<NA>

$$$$
4djw
     RDKit          3D

 48 51  0  0  0  0  0  0  0  0999 V2000
   22.4950   11.8750   22.5810 C   0  0  0  0  0  0  0  0  0  0  0  0
   22.5380    9.4930   22.4640 N   0  0  0  0  0  0  0  0  0  0  0  0
   22.3600   13.0630   22.3480 O   0  0  0  0  0  0  0  0  0  0  0  0
   22.3390   10.6680   21.5610 C   0  0  2  0  0  0  0  0  0  0  0  0
   22.7860   11.3350   23.8120 N   0  0  0  0  0  0  0  0  0  0  0  0
   22.7800    9.9140   23.7010 C   0  0  0  0  0  0  0  0  0  0  0  0
   22.9970    9.1110   24.7490 N   0  0  0  0  0  0  0  0  0  0  0  0
   23.0220   12.1410   25.0180 C   0  0  0  0  0  0  0  0  0  0  0  0
   29.1260    9.8230   21.7090 N   0  0  0  0  0  0  0  0  0  0  0  0
   23.4880   10.6920   20.5300 C   0  0  0  0  0  0  0  0  0  0  0  0
   23.2110   10.7890   19.1730 C   0  0  0  0  0  0  0  0  0  0  0  0
   24.2350   10.8650   18.2430 C   0  0  0  0  0  0  0  0  0  0  0  0
   25.5500   10.8410   18.6560 C   0  0  0  0  0  0  0  0  0  0  0  0
   25.8710   10.7460   20.0070 C   0  0  0  0  0  0  0  0  0  0  0  0
   24.8260   10.6610   20.9430 C   0  0  0  0  0  0  0  0  0  0  0  0
   29.8540   10.9130   21.4510 C   0  0  0  0  0  0  0  0  0  0  0  0
   27.8830    9.7800   21.2080 C   0  0  0  0  0  0  0  0  0  0  0  0
   27.3000   10.8010   20.4650 C   0  0  0  0  0  0  0  0  0  0  0  0
   28.0930   11.9190   20.2200 C   0  0  0  0  0  0  0  0  0  0  0  0
   29.3850   11.9780   20.7130 C   0  0  0  0  0  0  0  0  0  0  0  0
    0.0000    0.0000    0.0000 H   0  0  0  0  0  0  0  0  0  0  0  0
    0.0000    0.0000    0.0000 H   0  0  0  0  0  0  0  0  0  0  0  0
    0.0000    0.0000    0.0000 H   0  0  0  0  0  0  0  0  0  0  0  0
    0.0000    0.0000    0.0000 H   0  0  0  0  0  0  0  0  0  0  0  0
    0.0000    0.0000    0.0000 H   0  0  0  0  0  0  0  0  0  0  0  0
    0.0000    0.0000    0.0000 H   0  0  0  0  0  0  0  0  0  0  0  0
    0.0000    0.0000    0.0000 H   0  0  0  0  0  0  0  0  0  0  0  0
    0.0000    0.0000    0.0000 H   0  0  0  0  0  0  0  0  0  0  0  0
    0.0000    0.0000    0.0000 H   0  0  0  0  0  0  0  0  0  0  0  0
    0.0000    0.0000    0.0000 H   0  0  0  0  0  0  0  0  0  0  0  0
    0.0000    0.0000    0.0000 H   0  0  0  0  0  0  0  0  0  0  0  0
    0.0000    0.0000    0.0000 H   0  0  0  0  0  0  0  0  0  0  0  0
    0.0000    0.0000    0.0000 H   0  0  0  0  0  0  0  0  0  0  0  0
   10.7850    5.1504   10.4094 C   0  0  0  0  0  0  0  0  0  0  0  0
    9.6845    4.9379   11.0068 C   0  0  0  0  0  0  0  0  0  0  0  0
    9.4938    5.1559   12.4606 C   0  0  0  0  0  0  0  0  0  0  0  0
    8.2852    4.9140   13.0718 C   0  0  0  0  0  0  0  0  0  0  0  0
    8.0911    5.1115   14.4219 C   0  0  0  0  0  0  0  0  0  0  0  0
    9.1193    5.5653   15.2172 C   0  0  0  0  0  0  0  0  0  0  0  0
   10.3367    5.8122   14.6186 C   0  0  0  0  0  0  0  0  0  0  0  0
   10.5256    5.6098   13.2505 C   0  0  0  0  0  0  0  0  0  0  0  0
   11.2496    5.1186    9.5137 H   0  0  0  0  0  0  0  0  0  0  0  0
    8.8447    4.5769   10.4079 H   0  0  0  0  0  0  0  0  0  0  0  0
    7.4772    4.5565   12.4420 H   0  0  0  0  0  0  0  0  0  0  0  0
    7.1304    4.9169   14.8950 H   0  0  0  0  0  0  0  0  0  0  0  0
    8.9525    5.7161   16.2776 H   0  0  0  0  0  0  0  0  0  0  0  0
   11.1375    6.1670   15.2448 H   0  0  0  0  0  0  0  0  0  0  0  0
   11.4945    5.8091   12.7894 H   0  0  0  0  0  0  0  0  0  0  0  0
  1  3  2  0
  1  4  1  0
  2  4  1  0
  1  5  1  0
  2  6  1  0
  5  6  1  0
  6  7  2  3
  5  8  1  0
  4 10  1  6
 10 11  2  0
 11 12  1  0
 12 13  2  0
 13 14  1  0
 10 15  1  0
 14 15  2  0
  9 16  2  0
  9 17  1  0
 14 18  1  0
 17 18  2  0
 18 19  1  0
 16 20  1  0
 19 20  2  0
  2 21  1  0
  7 22  1  0
  8 23  1  0
  8 24  1  0
  8 25  1  0
 11 26  1  0
 12 27  1  0
 13 28  1  0
 15 29  1  0
 16 30  1  0
 17 31  1  0
 19 32  1  0
 20 33  1  0
 34 35  2  3
 35 36  1  0
 36 37  2  0
 37 38  1  0
 38 39  2  0
 39 40  1  0
 40 41  2  0
 41 36  1  0
 34 42  1  0
 35 43  1  0
 37 44  1  0
 38 45  1  0
 39 46  1  0
 40 47  1  0
 41 48  1  0
  4 34  1  0
M  END
>  <attachment_point>  (121) 
21

>  <score>  (121) 
<NA>

$$$$
4djw
     RDKit          3D

 47 50  0  0  0  0  0  0  0  0999 V2000
   22.4950   11.8750   22.5810 C   0  0  0  0  0  0  0  0  0  0  0  0
   22.5380    9.4930   22.4640 N   0  0  0  0  0  0  0  0  0  0  0  0
   22.3600   13.0630   22.3480 O   0  0  0  0  0  0  0  0  0  0  0  0
   22.3390   10.6680   21.5610 C   0  0  2  0  0  0  0  0  0  0  0  0
   22.7860   11.3350   23.8120 N   0  0  0  0  0  0  0  0  0  0  0  0
   22.7800    9.9140   23.7010 C   0  0  0  0  0  0  0  0  0  0  0  0
   22.9970    9.1110   24.7490 N   0  0  0  0  0  0  0  0  0  0  0  0
   23.0220   12.1410   25.0180 C   0  0  0  0  0  0  0  0  0  0  0  0
   29.1260    9.8230   21.7090 N   0  0  0  0  0  0  0  0  0  0  0  0
   23.4880   10.6920   20.5300 C   0  0  0  0  0  0  0  0  0  0  0  0
   23.2110   10.7890   19.1730 C   0  0  0  0  0  0  0  0  0  0  0  0
   24.2350   10.8650   18.2430 C   0  0  0  0  0  0  0  0  0  0  0  0
   25.5500   10.8410   18.6560 C   0  0  0  0  0  0  0  0  0  0  0  0
   25.8710   10.7460   20.0070 C   0  0  0  0  0  0  0  0  0  0  0  0
   24.8260   10.6610   20.9430 C   0  0  0  0  0  0  0  0  0  0  0  0
   29.8540   10.9130   21.4510 C   0  0  0  0  0  0  0  0  0  0  0  0
   27.8830    9.7800   21.2080 C   0  0  0  0  0  0  0  0  0  0  0  0
   27.3000   10.8010   20.4650 C   0  0  0  0  0  0  0  0  0  0  0  0
   28.0930   11.9190   20.2200 C   0  0  0  0  0  0  0  0  0  0  0  0
   29.3850   11.9780   20.7130 C   0  0  0  0  0  0  0  0  0  0  0  0
    0.0000    0.0000    0.0000 H   0  0  0  0  0  0  0  0  0  0  0  0
    0.0000    0.0000    0.0000 H   0  0  0  0  0  0  0  0  0  0  0  0
    0.0000    0.0000    0.0000 H   0  0  0  0  0  0  0  0  0  0  0  0
    0.0000    0.0000    0.0000 H   0  0  0  0  0  0  0  0  0  0  0  0
    0.0000    0.0000    0.0000 H   0  0  0  0  0  0  0  0  0  0  0  0
    0.0000    0.0000    0.0000 H   0  0  0  0  0  0  0  0  0  0  0  0
    0.0000    0.0000    0.0000 H   0  0  0  0  0  0  0  0  0  0  0  0
    0.0000    0.0000    0.0000 H   0  0  0  0  0  0  0  0  0  0  0  0
    0.0000    0.0000    0.0000 H   0  0  0  0  0  0  0  0  0  0  0  0
    0.0000    0.0000    0.0000 H   0  0  0  0  0  0  0  0  0  0  0  0
    0.0000    0.0000    0.0000 H   0  0  0  0  0  0  0  0  0  0  0  0
    0.0000    0.0000    0.0000 H   0  0  0  0  0  0  0  0  0  0  0  0
    0.0000    0.0000    0.0000 H   0  0  0  0  0  0  0  0  0  0  0  0
   10.8461    5.1795   10.4683 C   0  0  0  0  0  0  0  0  0  0  0  0
   11.5692    4.6177    9.3163 C   0  0  0  0  0  0  0  0  0  0  0  0
   11.9098    3.2770    9.3102 C   0  0  0  0  0  0  0  0  0  0  0  0
   12.5866    2.6905    8.2626 C   0  0  0  0  0  0  0  0  0  0  0  0
   12.9512    3.4357    7.1694 C   0  0  0  0  0  0  0  0  0  0  0  0
   13.6247    2.8970    6.1044 F   0  0  0  0  0  0  0  0  0  0  0  0
   12.6250    4.7736    7.1487 C   0  0  0  0  0  0  0  0  0  0  0  0
   11.9401    5.3596    8.2124 C   0  0  0  0  0  0  0  0  0  0  0  0
   10.3388    6.1347   10.2411 H   0  0  0  0  0  0  0  0  0  0  0  0
   10.2235    4.4570   10.9936 H   0  0  0  0  0  0  0  0  0  0  0  0
   11.6309    2.6674   10.1661 H   0  0  0  0  0  0  0  0  0  0  0  0
   12.8231    1.6389    8.3183 H   0  0  0  0  0  0  0  0  0  0  0  0
   12.8781    5.4356    6.3178 H   0  0  0  0  0  0  0  0  0  0  0  0
   11.6755    6.4103    8.2127 H   0  0  0  0  0  0  0  0  0  0  0  0
  1  3  2  0
  1  4  1  0
  2  4  1  0
  1  5  1  0
  2  6  1  0
  5  6  1  0
  6  7  2  3
  5  8  1  0
  4 10  1  0
 10 11  2  0
 11 12  1  0
 12 13  2  0
 13 14  1  0
 10 15  1  0
 14 15  2  0
  9 16  2  0
  9 17  1  0
 14 18  1  0
 17 18  2  0
 18 19  1  0
 16 20  1  0
 19 20  2  0
  2 21  1  0
  7 22  1  0
  8 23  1  0
  8 24  1  0
  8 25  1  0
 11 26  1  0
 12 27  1  0
 13 28  1  0
 15 29  1  0
 16 30  1  0
 17 31  1  0
 19 32  1  0
 20 33  1  0
 34 35  1  0
 35 36  2  0
 36 37  1  0
 37 38  2  0
 38 39  1  0
 38 40  1  0
 40 41  2  0
 41 35  1  0
 34 42  1  0
 34 43  1  0
 36 44  1  0
 37 45  1  0
 40 46  1  0
 41 47  1  0
  4 34  1  6
M  END
>  <attachment_point>  (122) 
21

>  <score>  (122) 
<NA>

$$$$
4djw
     RDKit          3D

 42 44  0  0  0  0  0  0  0  0999 V2000
   22.4950   11.8750   22.5810 C   0  0  0  0  0  0  0  0  0  0  0  0
   22.5380    9.4930   22.4640 N   0  0  0  0  0  0  0  0  0  0  0  0
   22.3600   13.0630   22.3480 O   0  0  0  0  0  0  0  0  0  0  0  0
   22.3390   10.6680   21.5610 C   0  0  2  0  0  0  0  0  0  0  0  0
   22.7860   11.3350   23.8120 N   0  0  0  0  0  0  0  0  0  0  0  0
   22.7800    9.9140   23.7010 C   0  0  0  0  0  0  0  0  0  0  0  0
   22.9970    9.1110   24.7490 N   0  0  0  0  0  0  0  0  0  0  0  0
   23.0220   12.1410   25.0180 C   0  0  0  0  0  0  0  0  0  0  0  0
   29.1260    9.8230   21.7090 N   0  0  0  0  0  0  0  0  0  0  0  0
   23.4880   10.6920   20.5300 C   0  0  0  0  0  0  0  0  0  0  0  0
   23.2110   10.7890   19.1730 C   0  0  0  0  0  0  0  0  0  0  0  0
   24.2350   10.8650   18.2430 C   0  0  0  0  0  0  0  0  0  0  0  0
   25.5500   10.8410   18.6560 C   0  0  0  0  0  0  0  0  0  0  0  0
   25.8710   10.7460   20.0070 C   0  0  0  0  0  0  0  0  0  0  0  0
   24.8260   10.6610   20.9430 C   0  0  0  0  0  0  0  0  0  0  0  0
   29.8540   10.9130   21.4510 C   0  0  0  0  0  0  0  0  0  0  0  0
   27.8830    9.7800   21.2080 C   0  0  0  0  0  0  0  0  0  0  0  0
   27.3000   10.8010   20.4650 C   0  0  0  0  0  0  0  0  0  0  0  0
   28.0930   11.9190   20.2200 C   0  0  0  0  0  0  0  0  0  0  0  0
   29.3850   11.9780   20.7130 C   0  0  0  0  0  0  0  0  0  0  0  0
    0.0000    0.0000    0.0000 H   0  0  0  0  0  0  0  0  0  0  0  0
    0.0000    0.0000    0.0000 H   0  0  0  0  0  0  0  0  0  0  0  0
    0.0000    0.0000    0.0000 H   0  0  0  0  0  0  0  0  0  0  0  0
    0.0000    0.0000    0.0000 H   0  0  0  0  0  0  0  0  0  0  0  0
    0.0000    0.0000    0.0000 H   0  0  0  0  0  0  0  0  0  0  0  0
    0.0000    0.0000    0.0000 H   0  0  0  0  0  0  0  0  0  0  0  0
    0.0000    0.0000    0.0000 H   0  0  0  0  0  0  0  0  0  0  0  0
    0.0000    0.0000    0.0000 H   0  0  0  0  0  0  0  0  0  0  0  0
    0.0000    0.0000    0.0000 H   0  0  0  0  0  0  0  0  0  0  0  0
    0.0000    0.0000    0.0000 H   0  0  0  0  0  0  0  0  0  0  0  0
    0.0000    0.0000    0.0000 H   0  0  0  0  0  0  0  0  0  0  0  0
    0.0000    0.0000    0.0000 H   0  0  0  0  0  0  0  0  0  0  0  0
    0.0000    0.0000    0.0000 H   0  0  0  0  0  0  0  0  0  0  0  0
   10.9842    5.2455   10.6017 O   0  0  0  0  0  0  0  0  0  0  0  0
   10.8736    4.1043    9.8403 C   0  0  0  0  0  0  0  0  0  0  0  0
    9.5979    4.1470    9.0021 C   0  0  0  0  0  0  0  0  0  0  0  0
    8.4618    4.2411    9.8137 O   0  0  0  0  0  0  0  0  0  0  0  0
   10.8731    3.1665   10.4090 H   0  0  0  0  0  0  0  0  0  0  0  0
   11.7094    4.0895    9.1004 H   0  0  0  0  0  0  0  0  0  0  0  0
    9.6600    4.9368    8.2564 H   0  0  0  0  0  0  0  0  0  0  0  0
    9.5608    3.1787    8.4474 H   0  0  0  0  0  0  0  0  0  0  0  0
    7.9374    5.0088    9.4651 H   0  0  0  0  0  0  0  0  0  0  0  0
  1  3  2  0
  1  4  1  0
  2  4  1  0
  1  5  1  0
  2  6  1  0
  5  6  1  0
  6  7  2  3
  5  8  1  0
  4 10  1  0
 10 11  2  0
 11 12  1  0
 12 13  2  0
 13 14  1  0
 10 15  1  0
 14 15  2  0
  9 16  2  0
  9 17  1  0
 14 18  1  0
 17 18  2  0
 18 19  1  0
 16 20  1  0
 19 20  2  0
  2 21  1  0
  7 22  1  0
  8 23  1  0
  8 24  1  0
  8 25  1  0
 11 26  1  0
 12 27  1  0
 13 28  1  0
 15 29  1  0
 16 30  1  0
 17 31  1  0
 19 32  1  0
 20 33  1  0
 34 35  1  0
 35 36  1  0
 36 37  1  0
 35 38  1  0
 35 39  1  0
 36 40  1  0
 36 41  1  0
 37 42  1  0
  4 34  1  6
M  END
>  <attachment_point>  (123) 
21

>  <score>  (123) 
<NA>

$$$$
4djw
     RDKit          3D

 49 51  0  0  0  0  0  0  0  0999 V2000
   22.4950   11.8750   22.5810 C   0  0  0  0  0  0  0  0  0  0  0  0
   22.5380    9.4930   22.4640 N   0  0  0  0  0  0  0  0  0  0  0  0
   22.3600   13.0630   22.3480 O   0  0  0  0  0  0  0  0  0  0  0  0
   22.3390   10.6680   21.5610 C   0  0  2  0  0  0  0  0  0  0  0  0
   22.7860   11.3350   23.8120 N   0  0  0  0  0  0  0  0  0  0  0  0
   22.7800    9.9140   23.7010 C   0  0  0  0  0  0  0  0  0  0  0  0
   22.9970    9.1110   24.7490 N   0  0  0  0  0  0  0  0  0  0  0  0
   23.0220   12.1410   25.0180 C   0  0  0  0  0  0  0  0  0  0  0  0
   29.1260    9.8230   21.7090 N   0  0  0  0  0  0  0  0  0  0  0  0
   23.4880   10.6920   20.5300 C   0  0  0  0  0  0  0  0  0  0  0  0
   23.2110   10.7890   19.1730 C   0  0  0  0  0  0  0  0  0  0  0  0
   24.2350   10.8650   18.2430 C   0  0  0  0  0  0  0  0  0  0  0  0
   25.5500   10.8410   18.6560 C   0  0  0  0  0  0  0  0  0  0  0  0
   25.8710   10.7460   20.0070 C   0  0  0  0  0  0  0  0  0  0  0  0
   24.8260   10.6610   20.9430 C   0  0  0  0  0  0  0  0  0  0  0  0
   29.8540   10.9130   21.4510 C   0  0  0  0  0  0  0  0  0  0  0  0
   27.8830    9.7800   21.2080 C   0  0  0  0  0  0  0  0  0  0  0  0
   27.3000   10.8010   20.4650 C   0  0  0  0  0  0  0  0  0  0  0  0
   28.0930   11.9190   20.2200 C   0  0  0  0  0  0  0  0  0  0  0  0
   29.3850   11.9780   20.7130 C   0  0  0  0  0  0  0  0  0  0  0  0
    0.0000    0.0000    0.0000 H   0  0  0  0  0  0  0  0  0  0  0  0
    0.0000    0.0000    0.0000 H   0  0  0  0  0  0  0  0  0  0  0  0
    0.0000    0.0000    0.0000 H   0  0  0  0  0  0  0  0  0  0  0  0
    0.0000    0.0000    0.0000 H   0  0  0  0  0  0  0  0  0  0  0  0
    0.0000    0.0000    0.0000 H   0  0  0  0  0  0  0  0  0  0  0  0
    0.0000    0.0000    0.0000 H   0  0  0  0  0  0  0  0  0  0  0  0
    0.0000    0.0000    0.0000 H   0  0  0  0  0  0  0  0  0  0  0  0
    0.0000    0.0000    0.0000 H   0  0  0  0  0  0  0  0  0  0  0  0
    0.0000    0.0000    0.0000 H   0  0  0  0  0  0  0  0  0  0  0  0
    0.0000    0.0000    0.0000 H   0  0  0  0  0  0  0  0  0  0  0  0
    0.0000    0.0000    0.0000 H   0  0  0  0  0  0  0  0  0  0  0  0
    0.0000    0.0000    0.0000 H   0  0  0  0  0  0  0  0  0  0  0  0
    0.0000    0.0000    0.0000 H   0  0  0  0  0  0  0  0  0  0  0  0
   10.8748    5.1933   10.4961 O   0  0  0  0  0  0  0  0  0  0  0  0
   10.6733    6.2309    9.5691 C   0  0  0  0  0  0  0  0  0  0  0  0
    9.8936    5.7457    8.4049 C   0  0  0  0  0  0  0  0  0  0  0  0
    8.5819    5.2344    8.6700 N   0  0  0  0  0  0  0  0  0  0  0  0
    7.9898    4.6274    7.5008 C   0  0  0  0  0  0  0  0  0  0  0  0
    7.7112    6.1824    9.3188 C   0  0  0  0  0  0  0  0  0  0  0  0
   11.6775    6.5629    9.1700 H   0  0  0  0  0  0  0  0  0  0  0  0
   10.2744    7.0944   10.1117 H   0  0  0  0  0  0  0  0  0  0  0  0
    9.7622    6.5562    7.6364 H   0  0  0  0  0  0  0  0  0  0  0  0
   10.4636    4.9406    7.8991 H   0  0  0  0  0  0  0  0  0  0  0  0
    8.4365    3.5906    7.4590 H   0  0  0  0  0  0  0  0  0  0  0  0
    6.9191    4.5285    7.5401 H   0  0  0  0  0  0  0  0  0  0  0  0
    8.3021    5.1151    6.5541 H   0  0  0  0  0  0  0  0  0  0  0  0
    7.9419    6.2897   10.3881 H   0  0  0  0  0  0  0  0  0  0  0  0
    6.6785    5.8592    9.1874 H   0  0  0  0  0  0  0  0  0  0  0  0
    7.9190    7.1961    8.8447 H   0  0  0  0  0  0  0  0  0  0  0  0
  1  3  2  0
  1  4  1  0
  2  4  1  0
  1  5  1  0
  2  6  1  0
  5  6  1  0
  6  7  2  3
  5  8  1  0
  4 10  1  0
 10 11  2  0
 11 12  1  0
 12 13  2  0
 13 14  1  0
 10 15  1  0
 14 15  2  0
  9 16  2  0
  9 17  1  0
 14 18  1  0
 17 18  2  0
 18 19  1  0
 16 20  1  0
 19 20  2  0
  2 21  1  0
  7 22  1  0
  8 23  1  0
  8 24  1  0
  8 25  1  0
 11 26  1  0
 12 27  1  0
 13 28  1  0
 15 29  1  0
 16 30  1  0
 17 31  1  0
 19 32  1  0
 20 33  1  0
 34 35  1  0
 35 36  1  0
 36 37  1  0
 37 38  1  0
 37 39  1  0
 35 40  1  0
 35 41  1  0
 36 42  1  0
 36 43  1  0
 38 44  1  0
 38 45  1  0
 38 46  1  0
 39 47  1  0
 39 48  1  0
 39 49  1  0
  4 34  1  6
M  END
>  <attachment_point>  (124) 
21

>  <score>  (124) 
<NA>

$$$$
4djw
     RDKit          3D

 46 49  0  0  0  0  0  0  0  0999 V2000
   22.4950   11.8750   22.5810 C   0  0  0  0  0  0  0  0  0  0  0  0
   22.5380    9.4930   22.4640 N   0  0  0  0  0  0  0  0  0  0  0  0
   22.3600   13.0630   22.3480 O   0  0  0  0  0  0  0  0  0  0  0  0
   22.3390   10.6680   21.5610 C   0  0  2  0  0  0  0  0  0  0  0  0
   22.7860   11.3350   23.8120 N   0  0  0  0  0  0  0  0  0  0  0  0
   22.7800    9.9140   23.7010 C   0  0  0  0  0  0  0  0  0  0  0  0
   22.9970    9.1110   24.7490 N   0  0  0  0  0  0  0  0  0  0  0  0
   23.0220   12.1410   25.0180 C   0  0  0  0  0  0  0  0  0  0  0  0
   29.1260    9.8230   21.7090 N   0  0  0  0  0  0  0  0  0  0  0  0
   23.4880   10.6920   20.5300 C   0  0  0  0  0  0  0  0  0  0  0  0
   23.2110   10.7890   19.1730 C   0  0  0  0  0  0  0  0  0  0  0  0
   24.2350   10.8650   18.2430 C   0  0  0  0  0  0  0  0  0  0  0  0
   25.5500   10.8410   18.6560 C   0  0  0  0  0  0  0  0  0  0  0  0
   25.8710   10.7460   20.0070 C   0  0  0  0  0  0  0  0  0  0  0  0
   24.8260   10.6610   20.9430 C   0  0  0  0  0  0  0  0  0  0  0  0
   29.8540   10.9130   21.4510 C   0  0  0  0  0  0  0  0  0  0  0  0
   27.8830    9.7800   21.2080 C   0  0  0  0  0  0  0  0  0  0  0  0
   27.3000   10.8010   20.4650 C   0  0  0  0  0  0  0  0  0  0  0  0
   28.0930   11.9190   20.2200 C   0  0  0  0  0  0  0  0  0  0  0  0
   29.3850   11.9780   20.7130 C   0  0  0  0  0  0  0  0  0  0  0  0
    0.0000    0.0000    0.0000 H   0  0  0  0  0  0  0  0  0  0  0  0
    0.0000    0.0000    0.0000 H   0  0  0  0  0  0  0  0  0  0  0  0
    0.0000    0.0000    0.0000 H   0  0  0  0  0  0  0  0  0  0  0  0
    0.0000    0.0000    0.0000 H   0  0  0  0  0  0  0  0  0  0  0  0
    0.0000    0.0000    0.0000 H   0  0  0  0  0  0  0  0  0  0  0  0
    0.0000    0.0000    0.0000 H   0  0  0  0  0  0  0  0  0  0  0  0
    0.0000    0.0000    0.0000 H   0  0  0  0  0  0  0  0  0  0  0  0
    0.0000    0.0000    0.0000 H   0  0  0  0  0  0  0  0  0  0  0  0
    0.0000    0.0000    0.0000 H   0  0  0  0  0  0  0  0  0  0  0  0
    0.0000    0.0000    0.0000 H   0  0  0  0  0  0  0  0  0  0  0  0
    0.0000    0.0000    0.0000 H   0  0  0  0  0  0  0  0  0  0  0  0
    0.0000    0.0000    0.0000 H   0  0  0  0  0  0  0  0  0  0  0  0
    0.0000    0.0000    0.0000 H   0  0  0  0  0  0  0  0  0  0  0  0
   10.8503    5.1816   10.4724 C   0  0  0  0  0  0  0  0  0  0  0  0
   10.5894    3.8363   10.3888 C   0  0  0  0  0  0  0  0  0  0  0  0
    9.6335    3.3930    9.4645 C   0  0  0  0  0  0  0  0  0  0  0  0
    8.9682    4.3055    8.6531 C   0  0  0  0  0  0  0  0  0  0  0  0
    8.0031    3.8403    7.7223 N   0  0  0  0  0  0  0  0  0  0  0  0
    9.2748    5.6434    8.7848 C   0  0  0  0  0  0  0  0  0  0  0  0
   10.2209    6.1123    9.6954 C   0  0  0  0  0  0  0  0  0  0  0  0
   11.0772    3.1104   10.9917 H   0  0  0  0  0  0  0  0  0  0  0  0
    9.3886    2.3469    9.3562 H   0  0  0  0  0  0  0  0  0  0  0  0
    8.1021    4.0815    6.7194 H   0  0  0  0  0  0  0  0  0  0  0  0
    7.1975    3.2618    8.0243 H   0  0  0  0  0  0  0  0  0  0  0  0
    8.7322    6.3310    8.1308 H   0  0  0  0  0  0  0  0  0  0  0  0
   10.4125    7.1686    9.7475 H   0  0  0  0  0  0  0  0  0  0  0  0
  1  3  2  0
  1  4  1  0
  2  4  1  0
  1  5  1  0
  2  6  1  0
  5  6  1  0
  6  7  2  3
  5  8  1  0
  4 10  1  6
 10 11  2  0
 11 12  1  0
 12 13  2  0
 13 14  1  0
 10 15  1  0
 14 15  2  0
  9 16  2  0
  9 17  1  0
 14 18  1  0
 17 18  2  0
 18 19  1  0
 16 20  1  0
 19 20  2  0
  2 21  1  0
  7 22  1  0
  8 23  1  0
  8 24  1  0
  8 25  1  0
 11 26  1  0
 12 27  1  0
 13 28  1  0
 15 29  1  0
 16 30  1  0
 17 31  1  0
 19 32  1  0
 20 33  1  0
 34 35  2  0
 35 36  1  0
 36 37  2  0
 37 38  1  0
 37 39  1  0
 39 40  2  0
 40 34  1  0
 35 41  1  0
 36 42  1  0
 38 43  1  0
 38 44  1  0
 39 45  1  0
 40 46  1  0
  4 34  1  0
M  END
>  <attachment_point>  (125) 
21

>  <score>  (125) 
<NA>

$$$$
4djw
     RDKit          3D

 47 50  0  0  0  0  0  0  0  0999 V2000
   22.4950   11.8750   22.5810 C   0  0  0  0  0  0  0  0  0  0  0  0
   22.5380    9.4930   22.4640 N   0  0  0  0  0  0  0  0  0  0  0  0
   22.3600   13.0630   22.3480 O   0  0  0  0  0  0  0  0  0  0  0  0
   22.3390   10.6680   21.5610 C   0  0  2  0  0  0  0  0  0  0  0  0
   22.7860   11.3350   23.8120 N   0  0  0  0  0  0  0  0  0  0  0  0
   22.7800    9.9140   23.7010 C   0  0  0  0  0  0  0  0  0  0  0  0
   22.9970    9.1110   24.7490 N   0  0  0  0  0  0  0  0  0  0  0  0
   23.0220   12.1410   25.0180 C   0  0  0  0  0  0  0  0  0  0  0  0
   29.1260    9.8230   21.7090 N   0  0  0  0  0  0  0  0  0  0  0  0
   23.4880   10.6920   20.5300 C   0  0  0  0  0  0  0  0  0  0  0  0
   23.2110   10.7890   19.1730 C   0  0  0  0  0  0  0  0  0  0  0  0
   24.2350   10.8650   18.2430 C   0  0  0  0  0  0  0  0  0  0  0  0
   25.5500   10.8410   18.6560 C   0  0  0  0  0  0  0  0  0  0  0  0
   25.8710   10.7460   20.0070 C   0  0  0  0  0  0  0  0  0  0  0  0
   24.8260   10.6610   20.9430 C   0  0  0  0  0  0  0  0  0  0  0  0
   29.8540   10.9130   21.4510 C   0  0  0  0  0  0  0  0  0  0  0  0
   27.8830    9.7800   21.2080 C   0  0  0  0  0  0  0  0  0  0  0  0
   27.3000   10.8010   20.4650 C   0  0  0  0  0  0  0  0  0  0  0  0
   28.0930   11.9190   20.2200 C   0  0  0  0  0  0  0  0  0  0  0  0
   29.3850   11.9780   20.7130 C   0  0  0  0  0  0  0  0  0  0  0  0
    0.0000    0.0000    0.0000 H   0  0  0  0  0  0  0  0  0  0  0  0
    0.0000    0.0000    0.0000 H   0  0  0  0  0  0  0  0  0  0  0  0
    0.0000    0.0000    0.0000 H   0  0  0  0  0  0  0  0  0  0  0  0
    0.0000    0.0000    0.0000 H   0  0  0  0  0  0  0  0  0  0  0  0
    0.0000    0.0000    0.0000 H   0  0  0  0  0  0  0  0  0  0  0  0
    0.0000    0.0000    0.0000 H   0  0  0  0  0  0  0  0  0  0  0  0
    0.0000    0.0000    0.0000 H   0  0  0  0  0  0  0  0  0  0  0  0
    0.0000    0.0000    0.0000 H   0  0  0  0  0  0  0  0  0  0  0  0
    0.0000    0.0000    0.0000 H   0  0  0  0  0  0  0  0  0  0  0  0
    0.0000    0.0000    0.0000 H   0  0  0  0  0  0  0  0  0  0  0  0
    0.0000    0.0000    0.0000 H   0  0  0  0  0  0  0  0  0  0  0  0
    0.0000    0.0000    0.0000 H   0  0  0  0  0  0  0  0  0  0  0  0
    0.0000    0.0000    0.0000 H   0  0  0  0  0  0  0  0  0  0  0  0
   10.8720    5.1919   10.4934 C   0  0  0  0  0  0  0  0  0  0  0  0
   11.1935    4.4478    9.3933 C   0  0  0  0  0  0  0  0  0  0  0  0
   10.2131    4.0260    8.5197 C   0  0  0  0  0  0  0  0  0  0  0  0
    8.9142    4.3904    8.8127 C   0  0  0  0  0  0  0  0  0  0  0  0
    8.5967    5.1429    9.9266 C   0  0  0  0  0  0  0  0  0  0  0  0
    9.5792    5.5650   10.8012 C   0  0  0  0  0  0  0  0  0  0  0  0
    9.2521    6.3745   12.0025 C   0  0  0  0  0  0  0  0  0  0  0  0
   12.2154    4.1840    9.1989 H   0  0  0  0  0  0  0  0  0  0  0  0
   10.4263    3.4346    7.6366 H   0  0  0  0  0  0  0  0  0  0  0  0
    8.1339    4.0531    8.1149 H   0  0  0  0  0  0  0  0  0  0  0  0
    7.5535    5.4152   10.1299 H   0  0  0  0  0  0  0  0  0  0  0  0
    8.3468    6.9980   11.8578 H   0  0  0  0  0  0  0  0  0  0  0  0
    9.0879    5.7650   12.9018 H   0  0  0  0  0  0  0  0  0  0  0  0
   10.0699    7.0943   12.2611 H   0  0  0  0  0  0  0  0  0  0  0  0
  1  3  2  0
  1  4  1  0
  2  4  1  0
  1  5  1  0
  2  6  1  0
  5  6  1  0
  6  7  2  3
  5  8  1  0
  4 10  1  6
 10 11  2  0
 11 12  1  0
 12 13  2  0
 13 14  1  0
 10 15  1  0
 14 15  2  0
  9 16  2  0
  9 17  1  0
 14 18  1  0
 17 18  2  0
 18 19  1  0
 16 20  1  0
 19 20  2  0
  2 21  1  0
  7 22  1  0
  8 23  1  0
  8 24  1  0
  8 25  1  0
 11 26  1  0
 12 27  1  0
 13 28  1  0
 15 29  1  0
 16 30  1  0
 17 31  1  0
 19 32  1  0
 20 33  1  0
 34 35  2  0
 35 36  1  0
 36 37  2  0
 37 38  1  0
 38 39  2  0
 39 40  1  0
 39 34  1  0
 35 41  1  0
 36 42  1  0
 37 43  1  0
 38 44  1  0
 40 45  1  0
 40 46  1  0
 40 47  1  0
  4 34  1  0
M  END
>  <attachment_point>  (126) 
21

>  <score>  (126) 
<NA>

$$$$
4djw
     RDKit          3D

 47 50  0  0  0  0  0  0  0  0999 V2000
   22.4950   11.8750   22.5810 C   0  0  0  0  0  0  0  0  0  0  0  0
   22.5380    9.4930   22.4640 N   0  0  0  0  0  0  0  0  0  0  0  0
   22.3600   13.0630   22.3480 O   0  0  0  0  0  0  0  0  0  0  0  0
   22.3390   10.6680   21.5610 C   0  0  2  0  0  0  0  0  0  0  0  0
   22.7860   11.3350   23.8120 N   0  0  0  0  0  0  0  0  0  0  0  0
   22.7800    9.9140   23.7010 C   0  0  0  0  0  0  0  0  0  0  0  0
   22.9970    9.1110   24.7490 N   0  0  0  0  0  0  0  0  0  0  0  0
   23.0220   12.1410   25.0180 C   0  0  0  0  0  0  0  0  0  0  0  0
   29.1260    9.8230   21.7090 N   0  0  0  0  0  0  0  0  0  0  0  0
   23.4880   10.6920   20.5300 C   0  0  0  0  0  0  0  0  0  0  0  0
   23.2110   10.7890   19.1730 C   0  0  0  0  0  0  0  0  0  0  0  0
   24.2350   10.8650   18.2430 C   0  0  0  0  0  0  0  0  0  0  0  0
   25.5500   10.8410   18.6560 C   0  0  0  0  0  0  0  0  0  0  0  0
   25.8710   10.7460   20.0070 C   0  0  0  0  0  0  0  0  0  0  0  0
   24.8260   10.6610   20.9430 C   0  0  0  0  0  0  0  0  0  0  0  0
   29.8540   10.9130   21.4510 C   0  0  0  0  0  0  0  0  0  0  0  0
   27.8830    9.7800   21.2080 C   0  0  0  0  0  0  0  0  0  0  0  0
   27.3000   10.8010   20.4650 C   0  0  0  0  0  0  0  0  0  0  0  0
   28.0930   11.9190   20.2200 C   0  0  0  0  0  0  0  0  0  0  0  0
   29.3850   11.9780   20.7130 C   0  0  0  0  0  0  0  0  0  0  0  0
    0.0000    0.0000    0.0000 H   0  0  0  0  0  0  0  0  0  0  0  0
    0.0000    0.0000    0.0000 H   0  0  0  0  0  0  0  0  0  0  0  0
    0.0000    0.0000    0.0000 H   0  0  0  0  0  0  0  0  0  0  0  0
    0.0000    0.0000    0.0000 H   0  0  0  0  0  0  0  0  0  0  0  0
    0.0000    0.0000    0.0000 H   0  0  0  0  0  0  0  0  0  0  0  0
    0.0000    0.0000    0.0000 H   0  0  0  0  0  0  0  0  0  0  0  0
    0.0000    0.0000    0.0000 H   0  0  0  0  0  0  0  0  0  0  0  0
    0.0000    0.0000    0.0000 H   0  0  0  0  0  0  0  0  0  0  0  0
    0.0000    0.0000    0.0000 H   0  0  0  0  0  0  0  0  0  0  0  0
    0.0000    0.0000    0.0000 H   0  0  0  0  0  0  0  0  0  0  0  0
    0.0000    0.0000    0.0000 H   0  0  0  0  0  0  0  0  0  0  0  0
    0.0000    0.0000    0.0000 H   0  0  0  0  0  0  0  0  0  0  0  0
    0.0000    0.0000    0.0000 H   0  0  0  0  0  0  0  0  0  0  0  0
   10.8612    5.1868   10.4829 C   0  0  0  0  0  0  0  0  0  0  0  0
    9.5582    5.5965   10.5619 C   0  0  0  0  0  0  0  0  0  0  0  0
    8.5893    5.1730    9.6772 C   0  0  0  0  0  0  0  0  0  0  0  0
    8.9360    4.3035    8.6710 C   0  0  0  0  0  0  0  0  0  0  0  0
    7.9812    3.7792    7.6606 C   0  0  0  0  0  0  0  0  0  0  0  0
    7.8166    2.4448    7.9000 F   0  0  0  0  0  0  0  0  0  0  0  0
    8.5823    3.9451    6.4243 F   0  0  0  0  0  0  0  0  0  0  0  0
    6.7792    4.4742    7.6891 F   0  0  0  0  0  0  0  0  0  0  0  0
   10.2435    3.8855    8.5828 C   0  0  0  0  0  0  0  0  0  0  0  0
   11.2074    4.3254    9.4869 C   0  0  0  0  0  0  0  0  0  0  0  0
    9.2992    6.2920   11.3732 H   0  0  0  0  0  0  0  0  0  0  0  0
    7.5603    5.4960    9.7388 H   0  0  0  0  0  0  0  0  0  0  0  0
   10.5936    3.1995    7.8154 H   0  0  0  0  0  0  0  0  0  0  0  0
   12.2254    3.9808    9.3935 H   0  0  0  0  0  0  0  0  0  0  0  0
  1  3  2  0
  1  4  1  0
  2  4  1  0
  1  5  1  0
  2  6  1  0
  5  6  1  0
  6  7  2  3
  5  8  1  0
  4 10  1  6
 10 11  2  0
 11 12  1  0
 12 13  2  0
 13 14  1  0
 10 15  1  0
 14 15  2  0
  9 16  2  0
  9 17  1  0
 14 18  1  0
 17 18  2  0
 18 19  1  0
 16 20  1  0
 19 20  2  0
  2 21  1  0
  7 22  1  0
  8 23  1  0
  8 24  1  0
  8 25  1  0
 11 26  1  0
 12 27  1  0
 13 28  1  0
 15 29  1  0
 16 30  1  0
 17 31  1  0
 19 32  1  0
 20 33  1  0
 34 35  2  0
 35 36  1  0
 36 37  2  0
 37 38  1  0
 38 39  1  0
 38 40  1  0
 38 41  1  0
 37 42  1  0
 42 43  2  0
 43 34  1  0
 35 44  1  0
 36 45  1  0
 42 46  1  0
 43 47  1  0
  4 34  1  0
M  END
>  <attachment_point>  (127) 
21

>  <score>  (127) 
<NA>

$$$$
4djw
     RDKit          3D

 48 50  0  0  0  0  0  0  0  0999 V2000
   22.4950   11.8750   22.5810 C   0  0  0  0  0  0  0  0  0  0  0  0
   22.5380    9.4930   22.4640 N   0  0  0  0  0  0  0  0  0  0  0  0
   22.3600   13.0630   22.3480 O   0  0  0  0  0  0  0  0  0  0  0  0
   22.3390   10.6680   21.5610 C   0  0  2  0  0  0  0  0  0  0  0  0
   22.7860   11.3350   23.8120 N   0  0  0  0  0  0  0  0  0  0  0  0
   22.7800    9.9140   23.7010 C   0  0  0  0  0  0  0  0  0  0  0  0
   22.9970    9.1110   24.7490 N   0  0  0  0  0  0  0  0  0  0  0  0
   23.0220   12.1410   25.0180 C   0  0  0  0  0  0  0  0  0  0  0  0
   29.1260    9.8230   21.7090 N   0  0  0  0  0  0  0  0  0  0  0  0
   23.4880   10.6920   20.5300 C   0  0  0  0  0  0  0  0  0  0  0  0
   23.2110   10.7890   19.1730 C   0  0  0  0  0  0  0  0  0  0  0  0
   24.2350   10.8650   18.2430 C   0  0  0  0  0  0  0  0  0  0  0  0
   25.5500   10.8410   18.6560 C   0  0  0  0  0  0  0  0  0  0  0  0
   25.8710   10.7460   20.0070 C   0  0  0  0  0  0  0  0  0  0  0  0
   24.8260   10.6610   20.9430 C   0  0  0  0  0  0  0  0  0  0  0  0
   29.8540   10.9130   21.4510 C   0  0  0  0  0  0  0  0  0  0  0  0
   27.8830    9.7800   21.2080 C   0  0  0  0  0  0  0  0  0  0  0  0
   27.3000   10.8010   20.4650 C   0  0  0  0  0  0  0  0  0  0  0  0
   28.0930   11.9190   20.2200 C   0  0  0  0  0  0  0  0  0  0  0  0
   29.3850   11.9780   20.7130 C   0  0  0  0  0  0  0  0  0  0  0  0
    0.0000    0.0000    0.0000 H   0  0  0  0  0  0  0  0  0  0  0  0
    0.0000    0.0000    0.0000 H   0  0  0  0  0  0  0  0  0  0  0  0
    0.0000    0.0000    0.0000 H   0  0  0  0  0  0  0  0  0  0  0  0
    0.0000    0.0000    0.0000 H   0  0  0  0  0  0  0  0  0  0  0  0
    0.0000    0.0000    0.0000 H   0  0  0  0  0  0  0  0  0  0  0  0
    0.0000    0.0000    0.0000 H   0  0  0  0  0  0  0  0  0  0  0  0
    0.0000    0.0000    0.0000 H   0  0  0  0  0  0  0  0  0  0  0  0
    0.0000    0.0000    0.0000 H   0  0  0  0  0  0  0  0  0  0  0  0
    0.0000    0.0000    0.0000 H   0  0  0  0  0  0  0  0  0  0  0  0
    0.0000    0.0000    0.0000 H   0  0  0  0  0  0  0  0  0  0  0  0
    0.0000    0.0000    0.0000 H   0  0  0  0  0  0  0  0  0  0  0  0
    0.0000    0.0000    0.0000 H   0  0  0  0  0  0  0  0  0  0  0  0
    0.0000    0.0000    0.0000 H   0  0  0  0  0  0  0  0  0  0  0  0
   10.9209    5.2153   10.5406 N   0  0  0  0  0  0  0  0  0  0  0  0
   11.3326    4.2338    9.5706 C   0  0  0  0  0  0  0  0  0  0  0  0
   12.7522    4.5130    9.1432 C   0  0  0  0  0  0  0  0  0  0  0  0
    9.5576    5.1065   10.9272 C   0  0  0  0  0  0  0  0  0  0  0  0
    9.2811    5.9488   12.1405 C   0  0  0  0  0  0  0  0  0  0  0  0
   10.6338    4.0889    8.7548 H   0  0  0  0  0  0  0  0  0  0  0  0
   11.3710    3.1993   10.0926 H   0  0  0  0  0  0  0  0  0  0  0  0
   13.5185    4.0594    9.7983 H   0  0  0  0  0  0  0  0  0  0  0  0
   12.9716    5.5960    9.1034 H   0  0  0  0  0  0  0  0  0  0  0  0
   12.9231    4.1232    8.0904 H   0  0  0  0  0  0  0  0  0  0  0  0
    9.1307    4.1012   11.0192 H   0  0  0  0  0  0  0  0  0  0  0  0
    8.8989    5.5835   10.1053 H   0  0  0  0  0  0  0  0  0  0  0  0
    8.5310    6.7369   12.0080 H   0  0  0  0  0  0  0  0  0  0  0  0
   10.2248    6.4750   12.4535 H   0  0  0  0  0  0  0  0  0  0  0  0
    8.9823    5.3097   12.9965 H   0  0  0  0  0  0  0  0  0  0  0  0
  1  3  2  0
  1  4  1  0
  2  4  1  0
  1  5  1  0
  2  6  1  0
  5  6  1  0
  6  7  2  3
  5  8  1  0
  4 10  1  0
 10 11  2  0
 11 12  1  0
 12 13  2  0
 13 14  1  0
 10 15  1  0
 14 15  2  0
  9 16  2  0
  9 17  1  0
 14 18  1  0
 17 18  2  0
 18 19  1  0
 16 20  1  0
 19 20  2  0
  2 21  1  0
  7 22  1  0
  8 23  1  0
  8 24  1  0
  8 25  1  0
 11 26  1  0
 12 27  1  0
 13 28  1  0
 15 29  1  0
 16 30  1  0
 17 31  1  0
 19 32  1  0
 20 33  1  0
 34 35  1  0
 35 36  1  0
 34 37  1  0
 37 38  1  0
 35 39  1  0
 35 40  1  0
 36 41  1  0
 36 42  1  0
 36 43  1  0
 37 44  1  0
 37 45  1  0
 38 46  1  0
 38 47  1  0
 38 48  1  0
  4 34  1  6
M  END
>  <attachment_point>  (128) 
21

>  <score>  (128) 
<NA>

$$$$
4djw
     RDKit          3D

 54 57  0  0  0  0  0  0  0  0999 V2000
   22.4950   11.8750   22.5810 C   0  0  0  0  0  0  0  0  0  0  0  0
   22.5380    9.4930   22.4640 N   0  0  0  0  0  0  0  0  0  0  0  0
   22.3600   13.0630   22.3480 O   0  0  0  0  0  0  0  0  0  0  0  0
   22.3390   10.6680   21.5610 C   0  0  2  0  0  0  0  0  0  0  0  0
   22.7860   11.3350   23.8120 N   0  0  0  0  0  0  0  0  0  0  0  0
   22.7800    9.9140   23.7010 C   0  0  0  0  0  0  0  0  0  0  0  0
   22.9970    9.1110   24.7490 N   0  0  0  0  0  0  0  0  0  0  0  0
   23.0220   12.1410   25.0180 C   0  0  0  0  0  0  0  0  0  0  0  0
   29.1260    9.8230   21.7090 N   0  0  0  0  0  0  0  0  0  0  0  0
   23.4880   10.6920   20.5300 C   0  0  0  0  0  0  0  0  0  0  0  0
   23.2110   10.7890   19.1730 C   0  0  0  0  0  0  0  0  0  0  0  0
   24.2350   10.8650   18.2430 C   0  0  0  0  0  0  0  0  0  0  0  0
   25.5500   10.8410   18.6560 C   0  0  0  0  0  0  0  0  0  0  0  0
   25.8710   10.7460   20.0070 C   0  0  0  0  0  0  0  0  0  0  0  0
   24.8260   10.6610   20.9430 C   0  0  0  0  0  0  0  0  0  0  0  0
   29.8540   10.9130   21.4510 C   0  0  0  0  0  0  0  0  0  0  0  0
   27.8830    9.7800   21.2080 C   0  0  0  0  0  0  0  0  0  0  0  0
   27.3000   10.8010   20.4650 C   0  0  0  0  0  0  0  0  0  0  0  0
   28.0930   11.9190   20.2200 C   0  0  0  0  0  0  0  0  0  0  0  0
   29.3850   11.9780   20.7130 C   0  0  0  0  0  0  0  0  0  0  0  0
    0.0000    0.0000    0.0000 H   0  0  0  0  0  0  0  0  0  0  0  0
    0.0000    0.0000    0.0000 H   0  0  0  0  0  0  0  0  0  0  0  0
    0.0000    0.0000    0.0000 H   0  0  0  0  0  0  0  0  0  0  0  0
    0.0000    0.0000    0.0000 H   0  0  0  0  0  0  0  0  0  0  0  0
    0.0000    0.0000    0.0000 H   0  0  0  0  0  0  0  0  0  0  0  0
    0.0000    0.0000    0.0000 H   0  0  0  0  0  0  0  0  0  0  0  0
    0.0000    0.0000    0.0000 H   0  0  0  0  0  0  0  0  0  0  0  0
    0.0000    0.0000    0.0000 H   0  0  0  0  0  0  0  0  0  0  0  0
    0.0000    0.0000    0.0000 H   0  0  0  0  0  0  0  0  0  0  0  0
    0.0000    0.0000    0.0000 H   0  0  0  0  0  0  0  0  0  0  0  0
    0.0000    0.0000    0.0000 H   0  0  0  0  0  0  0  0  0  0  0  0
    0.0000    0.0000    0.0000 H   0  0  0  0  0  0  0  0  0  0  0  0
    0.0000    0.0000    0.0000 H   0  0  0  0  0  0  0  0  0  0  0  0
   10.8648    5.1885   10.4864 C   0  0  0  0  0  0  0  0  0  0  0  0
   11.1265    5.1479    9.2710 O   0  0  0  0  0  0  0  0  0  0  0  0
    9.5885    4.7641   10.8963 N   0  0  0  0  0  0  0  0  0  0  0  0
    8.6340    4.3070    9.9635 C   0  0  0  0  0  0  0  0  0  0  0  0
    7.4494    5.2814    9.9886 C   0  0  0  0  0  0  0  0  0  0  0  0
    6.6439    4.9757    8.7428 C   0  0  0  0  0  0  0  0  0  0  0  0
    6.0385    3.6090    8.9377 C   0  0  0  0  0  0  0  0  0  0  0  0
    7.0474    2.5516    9.2461 C   0  0  0  0  0  0  0  0  0  0  0  0
    8.0886    2.9353   10.2343 C   0  0  0  0  0  0  0  0  0  0  0  0
    9.3253    4.7827   11.9213 H   0  0  0  0  0  0  0  0  0  0  0  0
    9.0159    4.3306    8.9244 H   0  0  0  0  0  0  0  0  0  0  0  0
    7.8271    6.3222    9.9029 H   0  0  0  0  0  0  0  0  0  0  0  0
    6.8725    5.1093   10.9201 H   0  0  0  0  0  0  0  0  0  0  0  0
    7.3511    4.9287    7.8951 H   0  0  0  0  0  0  0  0  0  0  0  0
    5.8343    5.6904    8.5709 H   0  0  0  0  0  0  0  0  0  0  0  0
    5.2139    3.6674    9.6885 H   0  0  0  0  0  0  0  0  0  0  0  0
    5.5455    3.3365    7.9798 H   0  0  0  0  0  0  0  0  0  0  0  0
    6.4829    1.6772    9.6754 H   0  0  0  0  0  0  0  0  0  0  0  0
    7.5096    2.1595    8.3068 H   0  0  0  0  0  0  0  0  0  0  0  0
    7.6706    2.9478   11.2724 H   0  0  0  0  0  0  0  0  0  0  0  0
    8.9193    2.2016   10.1291 H   0  0  0  0  0  0  0  0  0  0  0  0
  1  3  2  0
  1  4  1  0
  2  4  1  0
  1  5  1  0
  2  6  1  0
  5  6  1  0
  6  7  2  3
  5  8  1  0
  4 10  1  0
 10 11  2  0
 11 12  1  0
 12 13  2  0
 13 14  1  0
 10 15  1  0
 14 15  2  0
  9 16  2  0
  9 17  1  0
 14 18  1  0
 17 18  2  0
 18 19  1  0
 16 20  1  0
 19 20  2  0
  2 21  1  0
  7 22  1  0
  8 23  1  0
  8 24  1  0
  8 25  1  0
 11 26  1  0
 12 27  1  0
 13 28  1  0
 15 29  1  0
 16 30  1  0
 17 31  1  0
 19 32  1  0
 20 33  1  0
 34 35  2  0
 34 36  1  0
 36 37  1  0
 37 38  1  0
 38 39  1  0
 39 40  1  0
 40 41  1  0
 41 42  1  0
 42 37  1  0
 36 43  1  0
 37 44  1  0
 38 45  1  0
 38 46  1  0
 39 47  1  0
 39 48  1  0
 40 49  1  0
 40 50  1  0
 41 51  1  0
 41 52  1  0
 42 53  1  0
 42 54  1  0
  4 34  1  6
M  END
>  <attachment_point>  (129) 
21

>  <score>  (129) 
<NA>

$$$$
4djw
     RDKit          3D

 46 50  0  0  0  0  0  0  0  0999 V2000
   22.4950   11.8750   22.5810 C   0  0  0  0  0  0  0  0  0  0  0  0
   22.5380    9.4930   22.4640 N   0  0  0  0  0  0  0  0  0  0  0  0
   22.3600   13.0630   22.3480 O   0  0  0  0  0  0  0  0  0  0  0  0
   22.3390   10.6680   21.5610 C   0  0  2  0  0  0  0  0  0  0  0  0
   22.7860   11.3350   23.8120 N   0  0  0  0  0  0  0  0  0  0  0  0
   22.7800    9.9140   23.7010 C   0  0  0  0  0  0  0  0  0  0  0  0
   22.9970    9.1110   24.7490 N   0  0  0  0  0  0  0  0  0  0  0  0
   23.0220   12.1410   25.0180 C   0  0  0  0  0  0  0  0  0  0  0  0
   29.1260    9.8230   21.7090 N   0  0  0  0  0  0  0  0  0  0  0  0
   23.4880   10.6920   20.5300 C   0  0  0  0  0  0  0  0  0  0  0  0
   23.2110   10.7890   19.1730 C   0  0  0  0  0  0  0  0  0  0  0  0
   24.2350   10.8650   18.2430 C   0  0  0  0  0  0  0  0  0  0  0  0
   25.5500   10.8410   18.6560 C   0  0  0  0  0  0  0  0  0  0  0  0
   25.8710   10.7460   20.0070 C   0  0  0  0  0  0  0  0  0  0  0  0
   24.8260   10.6610   20.9430 C   0  0  0  0  0  0  0  0  0  0  0  0
   29.8540   10.9130   21.4510 C   0  0  0  0  0  0  0  0  0  0  0  0
   27.8830    9.7800   21.2080 C   0  0  0  0  0  0  0  0  0  0  0  0
   27.3000   10.8010   20.4650 C   0  0  0  0  0  0  0  0  0  0  0  0
   28.0930   11.9190   20.2200 C   0  0  0  0  0  0  0  0  0  0  0  0
   29.3850   11.9780   20.7130 C   0  0  0  0  0  0  0  0  0  0  0  0
    0.0000    0.0000    0.0000 H   0  0  0  0  0  0  0  0  0  0  0  0
    0.0000    0.0000    0.0000 H   0  0  0  0  0  0  0  0  0  0  0  0
    0.0000    0.0000    0.0000 H   0  0  0  0  0  0  0  0  0  0  0  0
    0.0000    0.0000    0.0000 H   0  0  0  0  0  0  0  0  0  0  0  0
    0.0000    0.0000    0.0000 H   0  0  0  0  0  0  0  0  0  0  0  0
    0.0000    0.0000    0.0000 H   0  0  0  0  0  0  0  0  0  0  0  0
    0.0000    0.0000    0.0000 H   0  0  0  0  0  0  0  0  0  0  0  0
    0.0000    0.0000    0.0000 H   0  0  0  0  0  0  0  0  0  0  0  0
    0.0000    0.0000    0.0000 H   0  0  0  0  0  0  0  0  0  0  0  0
    0.0000    0.0000    0.0000 H   0  0  0  0  0  0  0  0  0  0  0  0
    0.0000    0.0000    0.0000 H   0  0  0  0  0  0  0  0  0  0  0  0
    0.0000    0.0000    0.0000 H   0  0  0  0  0  0  0  0  0  0  0  0
    0.0000    0.0000    0.0000 H   0  0  0  0  0  0  0  0  0  0  0  0
   10.8664    5.1892   10.4879 C   0  0  0  0  0  0  0  0  0  0  0  0
    9.6575    5.6184   10.2553 N   0  0  0  0  0  0  0  0  0  0  0  0
    8.9094    5.0632    9.3497 C   0  0  0  0  0  0  0  0  0  0  0  0
    7.5954    5.4336    9.0076 C   0  0  0  0  0  0  0  0  0  0  0  0
    6.9178    4.7705    8.0385 C   0  0  0  0  0  0  0  0  0  0  0  0
    7.4381    3.7254    7.3404 C   0  0  0  0  0  0  0  0  0  0  0  0
    8.7202    3.3358    7.6480 C   0  0  0  0  0  0  0  0  0  0  0  0
    9.4415    4.0099    8.6500 C   0  0  0  0  0  0  0  0  0  0  0  0
   11.0026    3.8977    9.3606 S   0  0  0  0  0  0  0  0  0  0  0  0
    7.0959    6.2680    9.5211 H   0  0  0  0  0  0  0  0  0  0  0  0
    5.9003    5.1017    7.8149 H   0  0  0  0  0  0  0  0  0  0  0  0
    6.8742    3.2324    6.5885 H   0  0  0  0  0  0  0  0  0  0  0  0
    9.2376    2.5258    7.1665 H   0  0  0  0  0  0  0  0  0  0  0  0
  1  3  2  0
  1  4  1  0
  2  4  1  0
  1  5  1  0
  2  6  1  0
  5  6  1  0
  6  7  2  3
  5  8  1  0
  4 10  1  6
 10 11  2  0
 11 12  1  0
 12 13  2  0
 13 14  1  0
 10 15  1  0
 14 15  2  0
  9 16  2  0
  9 17  1  0
 14 18  1  0
 17 18  2  0
 18 19  1  0
 16 20  1  0
 19 20  2  0
  2 21  1  0
  7 22  1  0
  8 23  1  0
  8 24  1  0
  8 25  1  0
 11 26  1  0
 12 27  1  0
 13 28  1  0
 15 29  1  0
 16 30  1  0
 17 31  1  0
 19 32  1  0
 20 33  1  0
 34 35  2  0
 35 36  1  0
 36 37  2  0
 37 38  1  0
 38 39  2  0
 39 40  1  0
 40 41  2  0
 41 42  1  0
 42 34  1  0
 41 36  1  0
 37 43  1  0
 38 44  1  0
 39 45  1  0
 40 46  1  0
  4 34  1  0
M  END
>  <attachment_point>  (130) 
21

>  <score>  (130) 
<NA>

$$$$
4djw
     RDKit          3D

 44 47  0  0  0  0  0  0  0  0999 V2000
   22.4950   11.8750   22.5810 C   0  0  0  0  0  0  0  0  0  0  0  0
   22.5380    9.4930   22.4640 N   0  0  0  0  0  0  0  0  0  0  0  0
   22.3600   13.0630   22.3480 O   0  0  0  0  0  0  0  0  0  0  0  0
   22.3390   10.6680   21.5610 C   0  0  2  0  0  0  0  0  0  0  0  0
   22.7860   11.3350   23.8120 N   0  0  0  0  0  0  0  0  0  0  0  0
   22.7800    9.9140   23.7010 C   0  0  0  0  0  0  0  0  0  0  0  0
   22.9970    9.1110   24.7490 N   0  0  0  0  0  0  0  0  0  0  0  0
   23.0220   12.1410   25.0180 C   0  0  0  0  0  0  0  0  0  0  0  0
   29.1260    9.8230   21.7090 N   0  0  0  0  0  0  0  0  0  0  0  0
   23.4880   10.6920   20.5300 C   0  0  0  0  0  0  0  0  0  0  0  0
   23.2110   10.7890   19.1730 C   0  0  0  0  0  0  0  0  0  0  0  0
   24.2350   10.8650   18.2430 C   0  0  0  0  0  0  0  0  0  0  0  0
   25.5500   10.8410   18.6560 C   0  0  0  0  0  0  0  0  0  0  0  0
   25.8710   10.7460   20.0070 C   0  0  0  0  0  0  0  0  0  0  0  0
   24.8260   10.6610   20.9430 C   0  0  0  0  0  0  0  0  0  0  0  0
   29.8540   10.9130   21.4510 C   0  0  0  0  0  0  0  0  0  0  0  0
   27.8830    9.7800   21.2080 C   0  0  0  0  0  0  0  0  0  0  0  0
   27.3000   10.8010   20.4650 C   0  0  0  0  0  0  0  0  0  0  0  0
   28.0930   11.9190   20.2200 C   0  0  0  0  0  0  0  0  0  0  0  0
   29.3850   11.9780   20.7130 C   0  0  0  0  0  0  0  0  0  0  0  0
    0.0000    0.0000    0.0000 H   0  0  0  0  0  0  0  0  0  0  0  0
    0.0000    0.0000    0.0000 H   0  0  0  0  0  0  0  0  0  0  0  0
    0.0000    0.0000    0.0000 H   0  0  0  0  0  0  0  0  0  0  0  0
    0.0000    0.0000    0.0000 H   0  0  0  0  0  0  0  0  0  0  0  0
    0.0000    0.0000    0.0000 H   0  0  0  0  0  0  0  0  0  0  0  0
    0.0000    0.0000    0.0000 H   0  0  0  0  0  0  0  0  0  0  0  0
    0.0000    0.0000    0.0000 H   0  0  0  0  0  0  0  0  0  0  0  0
    0.0000    0.0000    0.0000 H   0  0  0  0  0  0  0  0  0  0  0  0
    0.0000    0.0000    0.0000 H   0  0  0  0  0  0  0  0  0  0  0  0
    0.0000    0.0000    0.0000 H   0  0  0  0  0  0  0  0  0  0  0  0
    0.0000    0.0000    0.0000 H   0  0  0  0  0  0  0  0  0  0  0  0
    0.0000    0.0000    0.0000 H   0  0  0  0  0  0  0  0  0  0  0  0
    0.0000    0.0000    0.0000 H   0  0  0  0  0  0  0  0  0  0  0  0
   10.8595    5.1860   10.4813 C   0  0  0  0  0  0  0  0  0  0  0  0
   11.6515    4.4837    9.4203 C   0  0  0  0  0  0  0  0  0  0  0  0
   10.7833    3.9025    8.3010 C   0  0  0  0  0  0  0  0  0  0  0  0
   11.7176    5.0168    8.0441 C   0  0  0  0  0  0  0  0  0  0  0  0
   10.2049    4.5237   11.0676 H   0  0  0  0  0  0  0  0  0  0  0  0
   10.3855    6.1152   10.1488 H   0  0  0  0  0  0  0  0  0  0  0  0
   12.5011    3.8437    9.7375 H   0  0  0  0  0  0  0  0  0  0  0  0
    9.7150    4.1355    8.2786 H   0  0  0  0  0  0  0  0  0  0  0  0
   11.0322    2.8926    7.9190 H   0  0  0  0  0  0  0  0  0  0  0  0
   12.5979    4.7594    7.4189 H   0  0  0  0  0  0  0  0  0  0  0  0
   11.3621    6.0584    7.8603 H   0  0  0  0  0  0  0  0  0  0  0  0
  1  3  2  0
  1  4  1  0
  2  4  1  0
  1  5  1  0
  2  6  1  0
  5  6  1  0
  6  7  2  3
  5  8  1  0
  4 10  1  0
 10 11  2  0
 11 12  1  0
 12 13  2  0
 13 14  1  0
 10 15  1  0
 14 15  2  0
  9 16  2  0
  9 17  1  0
 14 18  1  0
 17 18  2  0
 18 19  1  0
 16 20  1  0
 19 20  2  0
  2 21  1  0
  7 22  1  0
  8 23  1  0
  8 24  1  0
  8 25  1  0
 11 26  1  0
 12 27  1  0
 13 28  1  0
 15 29  1  0
 16 30  1  0
 17 31  1  0
 19 32  1  0
 20 33  1  0
 34 35  1  0
 35 36  1  0
 36 37  1  0
 37 35  1  0
 34 38  1  0
 34 39  1  0
 35 40  1  0
 36 41  1  0
 36 42  1  0
 37 43  1  0
 37 44  1  0
  4 34  1  6
M  END
>  <attachment_point>  (131) 
21

>  <score>  (131) 
<NA>

$$$$
4djw
     RDKit          3D

 52 55  0  0  0  0  0  0  0  0999 V2000
   22.4950   11.8750   22.5810 C   0  0  0  0  0  0  0  0  0  0  0  0
   22.5380    9.4930   22.4640 N   0  0  0  0  0  0  0  0  0  0  0  0
   22.3600   13.0630   22.3480 O   0  0  0  0  0  0  0  0  0  0  0  0
   22.3390   10.6680   21.5610 C   0  0  2  0  0  0  0  0  0  0  0  0
   22.7860   11.3350   23.8120 N   0  0  0  0  0  0  0  0  0  0  0  0
   22.7800    9.9140   23.7010 C   0  0  0  0  0  0  0  0  0  0  0  0
   22.9970    9.1110   24.7490 N   0  0  0  0  0  0  0  0  0  0  0  0
   23.0220   12.1410   25.0180 C   0  0  0  0  0  0  0  0  0  0  0  0
   29.1260    9.8230   21.7090 N   0  0  0  0  0  0  0  0  0  0  0  0
   23.4880   10.6920   20.5300 C   0  0  0  0  0  0  0  0  0  0  0  0
   23.2110   10.7890   19.1730 C   0  0  0  0  0  0  0  0  0  0  0  0
   24.2350   10.8650   18.2430 C   0  0  0  0  0  0  0  0  0  0  0  0
   25.5500   10.8410   18.6560 C   0  0  0  0  0  0  0  0  0  0  0  0
   25.8710   10.7460   20.0070 C   0  0  0  0  0  0  0  0  0  0  0  0
   24.8260   10.6610   20.9430 C   0  0  0  0  0  0  0  0  0  0  0  0
   29.8540   10.9130   21.4510 C   0  0  0  0  0  0  0  0  0  0  0  0
   27.8830    9.7800   21.2080 C   0  0  0  0  0  0  0  0  0  0  0  0
   27.3000   10.8010   20.4650 C   0  0  0  0  0  0  0  0  0  0  0  0
   28.0930   11.9190   20.2200 C   0  0  0  0  0  0  0  0  0  0  0  0
   29.3850   11.9780   20.7130 C   0  0  0  0  0  0  0  0  0  0  0  0
    0.0000    0.0000    0.0000 H   0  0  0  0  0  0  0  0  0  0  0  0
    0.0000    0.0000    0.0000 H   0  0  0  0  0  0  0  0  0  0  0  0
    0.0000    0.0000    0.0000 H   0  0  0  0  0  0  0  0  0  0  0  0
    0.0000    0.0000    0.0000 H   0  0  0  0  0  0  0  0  0  0  0  0
    0.0000    0.0000    0.0000 H   0  0  0  0  0  0  0  0  0  0  0  0
    0.0000    0.0000    0.0000 H   0  0  0  0  0  0  0  0  0  0  0  0
    0.0000    0.0000    0.0000 H   0  0  0  0  0  0  0  0  0  0  0  0
    0.0000    0.0000    0.0000 H   0  0  0  0  0  0  0  0  0  0  0  0
    0.0000    0.0000    0.0000 H   0  0  0  0  0  0  0  0  0  0  0  0
    0.0000    0.0000    0.0000 H   0  0  0  0  0  0  0  0  0  0  0  0
    0.0000    0.0000    0.0000 H   0  0  0  0  0  0  0  0  0  0  0  0
    0.0000    0.0000    0.0000 H   0  0  0  0  0  0  0  0  0  0  0  0
    0.0000    0.0000    0.0000 H   0  0  0  0  0  0  0  0  0  0  0  0
   10.8798    5.1957   10.5009 C   0  0  0  0  0  0  0  0  0  0  0  0
    9.8039    6.2755   10.4651 C   0  0  0  0  0  0  0  0  0  0  0  0
    9.4415    6.5377   11.9324 C   0  0  0  0  0  0  0  0  0  0  0  0
    8.8098    5.3274   12.4108 N   0  0  0  0  0  0  0  0  0  0  0  0
    8.1066    5.4961   13.6452 C   0  0  0  0  0  0  0  0  0  0  0  0
    9.8769    4.3313   12.5419 C   0  0  0  0  0  0  0  0  0  0  0  0
   10.2617    3.9599   11.1058 C   0  0  0  0  0  0  0  0  0  0  0  0
   11.3250    5.0150    9.5120 H   0  0  0  0  0  0  0  0  0  0  0  0
   10.1488    7.2021    9.9947 H   0  0  0  0  0  0  0  0  0  0  0  0
    8.8879    5.9229    9.9446 H   0  0  0  0  0  0  0  0  0  0  0  0
    8.7759    7.3973   12.0448 H   0  0  0  0  0  0  0  0  0  0  0  0
   10.4185    6.7337   12.4360 H   0  0  0  0  0  0  0  0  0  0  0  0
    7.4473    6.3789   13.5642 H   0  0  0  0  0  0  0  0  0  0  0  0
    8.7821    5.5452   14.5223 H   0  0  0  0  0  0  0  0  0  0  0  0
    7.4568    4.6044   13.7895 H   0  0  0  0  0  0  0  0  0  0  0  0
    9.4904    3.4578   13.0773 H   0  0  0  0  0  0  0  0  0  0  0  0
   10.7452    4.8149   13.0228 H   0  0  0  0  0  0  0  0  0  0  0  0
   10.9521    3.1132   11.1748 H   0  0  0  0  0  0  0  0  0  0  0  0
    9.2888    3.6900   10.6123 H   0  0  0  0  0  0  0  0  0  0  0  0
  1  3  2  0
  1  4  1  0
  2  4  1  0
  1  5  1  0
  2  6  1  0
  5  6  1  0
  6  7  2  3
  5  8  1  0
  4 10  1  0
 10 11  2  0
 11 12  1  0
 12 13  2  0
 13 14  1  0
 10 15  1  0
 14 15  2  0
  9 16  2  0
  9 17  1  0
 14 18  1  0
 17 18  2  0
 18 19  1  0
 16 20  1  0
 19 20  2  0
  2 21  1  0
  7 22  1  0
  8 23  1  0
  8 24  1  0
  8 25  1  0
 11 26  1  0
 12 27  1  0
 13 28  1  0
 15 29  1  0
 16 30  1  0
 17 31  1  0
 19 32  1  0
 20 33  1  0
 34 35  1  0
 35 36  1  0
 36 37  1  0
 37 38  1  0
 37 39  1  0
 39 40  1  0
 40 34  1  0
 34 41  1  0
 35 42  1  0
 35 43  1  0
 36 44  1  0
 36 45  1  0
 38 46  1  0
 38 47  1  0
 38 48  1  0
 39 49  1  0
 39 50  1  0
 40 51  1  0
 40 52  1  0
  4 34  1  6
M  END
>  <attachment_point>  (132) 
21

>  <score>  (132) 
<NA>

$$$$
4djw
     RDKit          3D

 47 50  0  0  0  0  0  0  0  0999 V2000
   22.4950   11.8750   22.5810 C   0  0  0  0  0  0  0  0  0  0  0  0
   22.5380    9.4930   22.4640 N   0  0  0  0  0  0  0  0  0  0  0  0
   22.3600   13.0630   22.3480 O   0  0  0  0  0  0  0  0  0  0  0  0
   22.3390   10.6680   21.5610 C   0  0  2  0  0  0  0  0  0  0  0  0
   22.7860   11.3350   23.8120 N   0  0  0  0  0  0  0  0  0  0  0  0
   22.7800    9.9140   23.7010 C   0  0  0  0  0  0  0  0  0  0  0  0
   22.9970    9.1110   24.7490 N   0  0  0  0  0  0  0  0  0  0  0  0
   23.0220   12.1410   25.0180 C   0  0  0  0  0  0  0  0  0  0  0  0
   29.1260    9.8230   21.7090 N   0  0  0  0  0  0  0  0  0  0  0  0
   23.4880   10.6920   20.5300 C   0  0  0  0  0  0  0  0  0  0  0  0
   23.2110   10.7890   19.1730 C   0  0  0  0  0  0  0  0  0  0  0  0
   24.2350   10.8650   18.2430 C   0  0  0  0  0  0  0  0  0  0  0  0
   25.5500   10.8410   18.6560 C   0  0  0  0  0  0  0  0  0  0  0  0
   25.8710   10.7460   20.0070 C   0  0  0  0  0  0  0  0  0  0  0  0
   24.8260   10.6610   20.9430 C   0  0  0  0  0  0  0  0  0  0  0  0
   29.8540   10.9130   21.4510 C   0  0  0  0  0  0  0  0  0  0  0  0
   27.8830    9.7800   21.2080 C   0  0  0  0  0  0  0  0  0  0  0  0
   27.3000   10.8010   20.4650 C   0  0  0  0  0  0  0  0  0  0  0  0
   28.0930   11.9190   20.2200 C   0  0  0  0  0  0  0  0  0  0  0  0
   29.3850   11.9780   20.7130 C   0  0  0  0  0  0  0  0  0  0  0  0
    0.0000    0.0000    0.0000 H   0  0  0  0  0  0  0  0  0  0  0  0
    0.0000    0.0000    0.0000 H   0  0  0  0  0  0  0  0  0  0  0  0
    0.0000    0.0000    0.0000 H   0  0  0  0  0  0  0  0  0  0  0  0
    0.0000    0.0000    0.0000 H   0  0  0  0  0  0  0  0  0  0  0  0
    0.0000    0.0000    0.0000 H   0  0  0  0  0  0  0  0  0  0  0  0
    0.0000    0.0000    0.0000 H   0  0  0  0  0  0  0  0  0  0  0  0
    0.0000    0.0000    0.0000 H   0  0  0  0  0  0  0  0  0  0  0  0
    0.0000    0.0000    0.0000 H   0  0  0  0  0  0  0  0  0  0  0  0
    0.0000    0.0000    0.0000 H   0  0  0  0  0  0  0  0  0  0  0  0
    0.0000    0.0000    0.0000 H   0  0  0  0  0  0  0  0  0  0  0  0
    0.0000    0.0000    0.0000 H   0  0  0  0  0  0  0  0  0  0  0  0
    0.0000    0.0000    0.0000 H   0  0  0  0  0  0  0  0  0  0  0  0
    0.0000    0.0000    0.0000 H   0  0  0  0  0  0  0  0  0  0  0  0
   10.8779    5.1948   10.4991 C   0  0  0  0  0  0  0  0  0  0  0  0
    9.6969    4.5840   10.8291 C   0  0  0  0  0  0  0  0  0  0  0  0
    8.7900    4.1532    9.8779 C   0  0  0  0  0  0  0  0  0  0  0  0
    9.1148    4.3601    8.5571 C   0  0  0  0  0  0  0  0  0  0  0  0
   10.3029    4.9755    8.1894 C   0  0  0  0  0  0  0  0  0  0  0  0
   10.6575    5.2009    6.7663 C   0  0  0  0  0  0  0  0  0  0  0  0
    9.8857    4.4395    5.9236 F   0  0  0  0  0  0  0  0  0  0  0  0
   10.5496    6.5449    6.4854 F   0  0  0  0  0  0  0  0  0  0  0  0
   11.9896    4.8609    6.5387 F   0  0  0  0  0  0  0  0  0  0  0  0
   11.1704    5.3854    9.1701 C   0  0  0  0  0  0  0  0  0  0  0  0
    9.4734    4.4371   11.8791 H   0  0  0  0  0  0  0  0  0  0  0  0
    7.8643    3.6745   10.1350 H   0  0  0  0  0  0  0  0  0  0  0  0
    8.4503    4.0482    7.7391 H   0  0  0  0  0  0  0  0  0  0  0  0
   12.1020    5.8689    8.8545 H   0  0  0  0  0  0  0  0  0  0  0  0
  1  3  2  0
  1  4  1  0
  2  4  1  0
  1  5  1  0
  2  6  1  0
  5  6  1  0
  6  7  2  3
  5  8  1  0
  4 10  1  6
 10 11  2  0
 11 12  1  0
 12 13  2  0
 13 14  1  0
 10 15  1  0
 14 15  2  0
  9 16  2  0
  9 17  1  0
 14 18  1  0
 17 18  2  0
 18 19  1  0
 16 20  1  0
 19 20  2  0
  2 21  1  0
  7 22  1  0
  8 23  1  0
  8 24  1  0
  8 25  1  0
 11 26  1  0
 12 27  1  0
 13 28  1  0
 15 29  1  0
 16 30  1  0
 17 31  1  0
 19 32  1  0
 20 33  1  0
 34 35  2  0
 35 36  1  0
 36 37  2  0
 37 38  1  0
 38 39  1  0
 39 40  1  0
 39 41  1  0
 39 42  1  0
 38 43  2  0
 43 34  1  0
 35 44  1  0
 36 45  1  0
 37 46  1  0
 43 47  1  0
  4 34  1  0
M  END
>  <attachment_point>  (133) 
21

>  <score>  (133) 
<NA>

$$$$
4djw
     RDKit          3D

 51 53  0  0  0  0  0  0  0  0999 V2000
   22.4950   11.8750   22.5810 C   0  0  0  0  0  0  0  0  0  0  0  0
   22.5380    9.4930   22.4640 N   0  0  0  0  0  0  0  0  0  0  0  0
   22.3600   13.0630   22.3480 O   0  0  0  0  0  0  0  0  0  0  0  0
   22.3390   10.6680   21.5610 C   0  0  2  0  0  0  0  0  0  0  0  0
   22.7860   11.3350   23.8120 N   0  0  0  0  0  0  0  0  0  0  0  0
   22.7800    9.9140   23.7010 C   0  0  0  0  0  0  0  0  0  0  0  0
   22.9970    9.1110   24.7490 N   0  0  0  0  0  0  0  0  0  0  0  0
   23.0220   12.1410   25.0180 C   0  0  0  0  0  0  0  0  0  0  0  0
   29.1260    9.8230   21.7090 N   0  0  0  0  0  0  0  0  0  0  0  0
   23.4880   10.6920   20.5300 C   0  0  0  0  0  0  0  0  0  0  0  0
   23.2110   10.7890   19.1730 C   0  0  0  0  0  0  0  0  0  0  0  0
   24.2350   10.8650   18.2430 C   0  0  0  0  0  0  0  0  0  0  0  0
   25.5500   10.8410   18.6560 C   0  0  0  0  0  0  0  0  0  0  0  0
   25.8710   10.7460   20.0070 C   0  0  0  0  0  0  0  0  0  0  0  0
   24.8260   10.6610   20.9430 C   0  0  0  0  0  0  0  0  0  0  0  0
   29.8540   10.9130   21.4510 C   0  0  0  0  0  0  0  0  0  0  0  0
   27.8830    9.7800   21.2080 C   0  0  0  0  0  0  0  0  0  0  0  0
   27.3000   10.8010   20.4650 C   0  0  0  0  0  0  0  0  0  0  0  0
   28.0930   11.9190   20.2200 C   0  0  0  0  0  0  0  0  0  0  0  0
   29.3850   11.9780   20.7130 C   0  0  0  0  0  0  0  0  0  0  0  0
    0.0000    0.0000    0.0000 H   0  0  0  0  0  0  0  0  0  0  0  0
    0.0000    0.0000    0.0000 H   0  0  0  0  0  0  0  0  0  0  0  0
    0.0000    0.0000    0.0000 H   0  0  0  0  0  0  0  0  0  0  0  0
    0.0000    0.0000    0.0000 H   0  0  0  0  0  0  0  0  0  0  0  0
    0.0000    0.0000    0.0000 H   0  0  0  0  0  0  0  0  0  0  0  0
    0.0000    0.0000    0.0000 H   0  0  0  0  0  0  0  0  0  0  0  0
    0.0000    0.0000    0.0000 H   0  0  0  0  0  0  0  0  0  0  0  0
    0.0000    0.0000    0.0000 H   0  0  0  0  0  0  0  0  0  0  0  0
    0.0000    0.0000    0.0000 H   0  0  0  0  0  0  0  0  0  0  0  0
    0.0000    0.0000    0.0000 H   0  0  0  0  0  0  0  0  0  0  0  0
    0.0000    0.0000    0.0000 H   0  0  0  0  0  0  0  0  0  0  0  0
    0.0000    0.0000    0.0000 H   0  0  0  0  0  0  0  0  0  0  0  0
    0.0000    0.0000    0.0000 H   0  0  0  0  0  0  0  0  0  0  0  0
   10.8855    5.1984   10.5064 C   0  0  0  0  0  0  0  0  0  0  0  0
    9.7074    4.6936   11.1709 N   0  0  0  0  0  0  0  0  0  0  0  0
    8.7119    4.2169   10.2525 C   0  0  0  0  0  0  0  0  0  0  0  0
    7.4641    3.6925   10.8874 C   0  0  0  0  0  0  0  0  0  0  0  0
   10.0088    3.8193   12.2646 C   0  0  0  0  0  0  0  0  0  0  0  0
   10.6607    4.6621   13.3595 C   0  0  0  0  0  0  0  0  0  0  0  0
   11.2457    4.4537    9.7665 H   0  0  0  0  0  0  0  0  0  0  0  0
   10.5701    6.0988    9.9224 H   0  0  0  0  0  0  0  0  0  0  0  0
    8.4254    5.1073    9.6170 H   0  0  0  0  0  0  0  0  0  0  0  0
    9.0858    3.4647    9.5218 H   0  0  0  0  0  0  0  0  0  0  0  0
    7.5985    2.7988   11.4929 H   0  0  0  0  0  0  0  0  0  0  0  0
    7.0131    4.5057   11.5051 H   0  0  0  0  0  0  0  0  0  0  0  0
    6.7107    3.4996   10.0753 H   0  0  0  0  0  0  0  0  0  0  0  0
   10.6395    2.9633   12.0362 H   0  0  0  0  0  0  0  0  0  0  0  0
    9.0557    3.4717   12.7203 H   0  0  0  0  0  0  0  0  0  0  0  0
   11.4370    5.3133   12.9107 H   0  0  0  0  0  0  0  0  0  0  0  0
    9.9339    5.3338   13.8562 H   0  0  0  0  0  0  0  0  0  0  0  0
   11.0426    3.9797   14.1445 H   0  0  0  0  0  0  0  0  0  0  0  0
  1  3  2  0
  1  4  1  0
  2  4  1  0
  1  5  1  0
  2  6  1  0
  5  6  1  0
  6  7  2  3
  5  8  1  0
  4 10  1  0
 10 11  2  0
 11 12  1  0
 12 13  2  0
 13 14  1  0
 10 15  1  0
 14 15  2  0
  9 16  2  0
  9 17  1  0
 14 18  1  0
 17 18  2  0
 18 19  1  0
 16 20  1  0
 19 20  2  0
  2 21  1  0
  7 22  1  0
  8 23  1  0
  8 24  1  0
  8 25  1  0
 11 26  1  0
 12 27  1  0
 13 28  1  0
 15 29  1  0
 16 30  1  0
 17 31  1  0
 19 32  1  0
 20 33  1  0
 34 35  1  0
 35 36  1  0
 36 37  1  0
 35 38  1  0
 38 39  1  0
 34 40  1  0
 34 41  1  0
 36 42  1  0
 36 43  1  0
 37 44  1  0
 37 45  1  0
 37 46  1  0
 38 47  1  0
 38 48  1  0
 39 49  1  0
 39 50  1  0
 39 51  1  0
  4 34  1  6
M  END
>  <attachment_point>  (134) 
21

>  <score>  (134) 
<NA>

$$$$
4djw
     RDKit          3D

 47 51  0  0  0  0  0  0  0  0999 V2000
   22.4950   11.8750   22.5810 C   0  0  0  0  0  0  0  0  0  0  0  0
   22.5380    9.4930   22.4640 N   0  0  0  0  0  0  0  0  0  0  0  0
   22.3600   13.0630   22.3480 O   0  0  0  0  0  0  0  0  0  0  0  0
   22.3390   10.6680   21.5610 C   0  0  2  0  0  0  0  0  0  0  0  0
   22.7860   11.3350   23.8120 N   0  0  0  0  0  0  0  0  0  0  0  0
   22.7800    9.9140   23.7010 C   0  0  0  0  0  0  0  0  0  0  0  0
   22.9970    9.1110   24.7490 N   0  0  0  0  0  0  0  0  0  0  0  0
   23.0220   12.1410   25.0180 C   0  0  0  0  0  0  0  0  0  0  0  0
   29.1260    9.8230   21.7090 N   0  0  0  0  0  0  0  0  0  0  0  0
   23.4880   10.6920   20.5300 C   0  0  0  0  0  0  0  0  0  0  0  0
   23.2110   10.7890   19.1730 C   0  0  0  0  0  0  0  0  0  0  0  0
   24.2350   10.8650   18.2430 C   0  0  0  0  0  0  0  0  0  0  0  0
   25.5500   10.8410   18.6560 C   0  0  0  0  0  0  0  0  0  0  0  0
   25.8710   10.7460   20.0070 C   0  0  0  0  0  0  0  0  0  0  0  0
   24.8260   10.6610   20.9430 C   0  0  0  0  0  0  0  0  0  0  0  0
   29.8540   10.9130   21.4510 C   0  0  0  0  0  0  0  0  0  0  0  0
   27.8830    9.7800   21.2080 C   0  0  0  0  0  0  0  0  0  0  0  0
   27.3000   10.8010   20.4650 C   0  0  0  0  0  0  0  0  0  0  0  0
   28.0930   11.9190   20.2200 C   0  0  0  0  0  0  0  0  0  0  0  0
   29.3850   11.9780   20.7130 C   0  0  0  0  0  0  0  0  0  0  0  0
    0.0000    0.0000    0.0000 H   0  0  0  0  0  0  0  0  0  0  0  0
    0.0000    0.0000    0.0000 H   0  0  0  0  0  0  0  0  0  0  0  0
    0.0000    0.0000    0.0000 H   0  0  0  0  0  0  0  0  0  0  0  0
    0.0000    0.0000    0.0000 H   0  0  0  0  0  0  0  0  0  0  0  0
    0.0000    0.0000    0.0000 H   0  0  0  0  0  0  0  0  0  0  0  0
    0.0000    0.0000    0.0000 H   0  0  0  0  0  0  0  0  0  0  0  0
    0.0000    0.0000    0.0000 H   0  0  0  0  0  0  0  0  0  0  0  0
    0.0000    0.0000    0.0000 H   0  0  0  0  0  0  0  0  0  0  0  0
    0.0000    0.0000    0.0000 H   0  0  0  0  0  0  0  0  0  0  0  0
    0.0000    0.0000    0.0000 H   0  0  0  0  0  0  0  0  0  0  0  0
    0.0000    0.0000    0.0000 H   0  0  0  0  0  0  0  0  0  0  0  0
    0.0000    0.0000    0.0000 H   0  0  0  0  0  0  0  0  0  0  0  0
    0.0000    0.0000    0.0000 H   0  0  0  0  0  0  0  0  0  0  0  0
   10.8546    5.1836   10.4766 C   0  0  0  0  0  0  0  0  0  0  0  0
    9.5396    5.3725   10.5514 N   0  0  0  0  0  0  0  0  0  0  0  0
    8.9557    4.7852    9.4800 C   0  0  0  0  0  0  0  0  0  0  0  0
    7.6347    4.6712    9.0554 C   0  0  0  0  0  0  0  0  0  0  0  0
    7.2955    4.0048    7.8982 C   0  0  0  0  0  0  0  0  0  0  0  0
    8.3115    3.4503    7.1679 C   0  0  0  0  0  0  0  0  0  0  0  0
    9.6148    3.5501    7.5660 C   0  0  0  0  0  0  0  0  0  0  0  0
    9.9644    4.2206    8.7320 C   0  0  0  0  0  0  0  0  0  0  0  0
   11.1144    4.4833    9.3708 N   0  0  0  0  0  0  0  0  0  0  0  0
    6.8789    5.1314    9.6772 H   0  0  0  0  0  0  0  0  0  0  0  0
    6.2392    3.9401    7.6021 H   0  0  0  0  0  0  0  0  0  0  0  0
    8.0430    2.9293    6.2624 H   0  0  0  0  0  0  0  0  0  0  0  0
   10.3969    3.1091    6.9806 H   0  0  0  0  0  0  0  0  0  0  0  0
   12.0378    4.1704    9.0215 H   0  0  0  0  0  0  0  0  0  0  0  0
  1  3  2  0
  1  4  1  0
  2  4  1  0
  1  5  1  0
  2  6  1  0
  5  6  1  0
  6  7  2  3
  5  8  1  0
  4 10  1  6
 10 11  2  0
 11 12  1  0
 12 13  2  0
 13 14  1  0
 10 15  1  0
 14 15  2  0
  9 16  2  0
  9 17  1  0
 14 18  1  0
 17 18  2  0
 18 19  1  0
 16 20  1  0
 19 20  2  0
  2 21  1  0
  7 22  1  0
  8 23  1  0
  8 24  1  0
  8 25  1  0
 11 26  1  0
 12 27  1  0
 13 28  1  0
 15 29  1  0
 16 30  1  0
 17 31  1  0
 19 32  1  0
 20 33  1  0
 34 35  2  0
 35 36  1  0
 36 37  2  0
 37 38  1  0
 38 39  2  0
 39 40  1  0
 40 41  2  0
 41 42  1  0
 42 34  1  0
 41 36  1  0
 37 43  1  0
 38 44  1  0
 39 45  1  0
 40 46  1  0
 42 47  1  0
  4 34  1  0
M  END
>  <attachment_point>  (135) 
21

>  <score>  (135) 
<NA>

$$$$
4djw
     RDKit          3D

 47 49  0  0  0  0  0  0  0  0999 V2000
   22.4950   11.8750   22.5810 C   0  0  0  0  0  0  0  0  0  0  0  0
   22.5380    9.4930   22.4640 N   0  0  0  0  0  0  0  0  0  0  0  0
   22.3600   13.0630   22.3480 O   0  0  0  0  0  0  0  0  0  0  0  0
   22.3390   10.6680   21.5610 C   0  0  2  0  0  0  0  0  0  0  0  0
   22.7860   11.3350   23.8120 N   0  0  0  0  0  0  0  0  0  0  0  0
   22.7800    9.9140   23.7010 C   0  0  0  0  0  0  0  0  0  0  0  0
   22.9970    9.1110   24.7490 N   0  0  0  0  0  0  0  0  0  0  0  0
   23.0220   12.1410   25.0180 C   0  0  0  0  0  0  0  0  0  0  0  0
   29.1260    9.8230   21.7090 N   0  0  0  0  0  0  0  0  0  0  0  0
   23.4880   10.6920   20.5300 C   0  0  0  0  0  0  0  0  0  0  0  0
   23.2110   10.7890   19.1730 C   0  0  0  0  0  0  0  0  0  0  0  0
   24.2350   10.8650   18.2430 C   0  0  0  0  0  0  0  0  0  0  0  0
   25.5500   10.8410   18.6560 C   0  0  0  0  0  0  0  0  0  0  0  0
   25.8710   10.7460   20.0070 C   0  0  0  0  0  0  0  0  0  0  0  0
   24.8260   10.6610   20.9430 C   0  0  0  0  0  0  0  0  0  0  0  0
   29.8540   10.9130   21.4510 C   0  0  0  0  0  0  0  0  0  0  0  0
   27.8830    9.7800   21.2080 C   0  0  0  0  0  0  0  0  0  0  0  0
   27.3000   10.8010   20.4650 C   0  0  0  0  0  0  0  0  0  0  0  0
   28.0930   11.9190   20.2200 C   0  0  0  0  0  0  0  0  0  0  0  0
   29.3850   11.9780   20.7130 C   0  0  0  0  0  0  0  0  0  0  0  0
    0.0000    0.0000    0.0000 H   0  0  0  0  0  0  0  0  0  0  0  0
    0.0000    0.0000    0.0000 H   0  0  0  0  0  0  0  0  0  0  0  0
    0.0000    0.0000    0.0000 H   0  0  0  0  0  0  0  0  0  0  0  0
    0.0000    0.0000    0.0000 H   0  0  0  0  0  0  0  0  0  0  0  0
    0.0000    0.0000    0.0000 H   0  0  0  0  0  0  0  0  0  0  0  0
    0.0000    0.0000    0.0000 H   0  0  0  0  0  0  0  0  0  0  0  0
    0.0000    0.0000    0.0000 H   0  0  0  0  0  0  0  0  0  0  0  0
    0.0000    0.0000    0.0000 H   0  0  0  0  0  0  0  0  0  0  0  0
    0.0000    0.0000    0.0000 H   0  0  0  0  0  0  0  0  0  0  0  0
    0.0000    0.0000    0.0000 H   0  0  0  0  0  0  0  0  0  0  0  0
    0.0000    0.0000    0.0000 H   0  0  0  0  0  0  0  0  0  0  0  0
    0.0000    0.0000    0.0000 H   0  0  0  0  0  0  0  0  0  0  0  0
    0.0000    0.0000    0.0000 H   0  0  0  0  0  0  0  0  0  0  0  0
   10.8341    5.1738   10.4568 C   0  0  0  0  0  0  0  0  0  0  0  0
    9.7563    5.7103   10.4961 O   0  0  0  0  0  0  0  0  0  0  0  0
   11.2766    4.1480    9.6132 N   0  0  0  0  0  0  0  0  0  0  0  0
   10.3868    3.5745    8.6019 C   0  0  0  0  0  0  0  0  0  0  0  0
   11.0425    3.6960    7.2407 C   0  0  0  0  0  0  0  0  0  0  0  0
   10.2567    2.0666    8.8340 C   0  0  0  0  0  0  0  0  0  0  0  0
   12.2344    3.7386    9.6476 H   0  0  0  0  0  0  0  0  0  0  0  0
    9.3889    4.0597    8.6264 H   0  0  0  0  0  0  0  0  0  0  0  0
   12.1198    3.5061    7.3701 H   0  0  0  0  0  0  0  0  0  0  0  0
   10.6698    2.8904    6.5525 H   0  0  0  0  0  0  0  0  0  0  0  0
   10.7987    4.6605    6.7810 H   0  0  0  0  0  0  0  0  0  0  0  0
    9.6254    1.6769    8.0069 H   0  0  0  0  0  0  0  0  0  0  0  0
   11.2697    1.6316    8.6710 H   0  0  0  0  0  0  0  0  0  0  0  0
    9.8408    1.8435    9.8303 H   0  0  0  0  0  0  0  0  0  0  0  0
  1  3  2  0
  1  4  1  0
  2  4  1  0
  1  5  1  0
  2  6  1  0
  5  6  1  0
  6  7  2  3
  5  8  1  0
  4 10  1  0
 10 11  2  0
 11 12  1  0
 12 13  2  0
 13 14  1  0
 10 15  1  0
 14 15  2  0
  9 16  2  0
  9 17  1  0
 14 18  1  0
 17 18  2  0
 18 19  1  0
 16 20  1  0
 19 20  2  0
  2 21  1  0
  7 22  1  0
  8 23  1  0
  8 24  1  0
  8 25  1  0
 11 26  1  0
 12 27  1  0
 13 28  1  0
 15 29  1  0
 16 30  1  0
 17 31  1  0
 19 32  1  0
 20 33  1  0
 34 35  2  0
 34 36  1  0
 36 37  1  0
 37 38  1  0
 37 39  1  0
 36 40  1  0
 37 41  1  0
 38 42  1  0
 38 43  1  0
 38 44  1  0
 39 45  1  0
 39 46  1  0
 39 47  1  0
  4 34  1  6
M  END
>  <attachment_point>  (136) 
21

>  <score>  (136) 
<NA>

$$$$
4djw
     RDKit          3D

 43 45  0  0  0  0  0  0  0  0999 V2000
   22.4950   11.8750   22.5810 C   0  0  0  0  0  0  0  0  0  0  0  0
   22.5380    9.4930   22.4640 N   0  0  0  0  0  0  0  0  0  0  0  0
   22.3600   13.0630   22.3480 O   0  0  0  0  0  0  0  0  0  0  0  0
   22.3390   10.6680   21.5610 C   0  0  2  0  0  0  0  0  0  0  0  0
   22.7860   11.3350   23.8120 N   0  0  0  0  0  0  0  0  0  0  0  0
   22.7800    9.9140   23.7010 C   0  0  0  0  0  0  0  0  0  0  0  0
   22.9970    9.1110   24.7490 N   0  0  0  0  0  0  0  0  0  0  0  0
   23.0220   12.1410   25.0180 C   0  0  0  0  0  0  0  0  0  0  0  0
   29.1260    9.8230   21.7090 N   0  0  0  0  0  0  0  0  0  0  0  0
   23.4880   10.6920   20.5300 C   0  0  0  0  0  0  0  0  0  0  0  0
   23.2110   10.7890   19.1730 C   0  0  0  0  0  0  0  0  0  0  0  0
   24.2350   10.8650   18.2430 C   0  0  0  0  0  0  0  0  0  0  0  0
   25.5500   10.8410   18.6560 C   0  0  0  0  0  0  0  0  0  0  0  0
   25.8710   10.7460   20.0070 C   0  0  0  0  0  0  0  0  0  0  0  0
   24.8260   10.6610   20.9430 C   0  0  0  0  0  0  0  0  0  0  0  0
   29.8540   10.9130   21.4510 C   0  0  0  0  0  0  0  0  0  0  0  0
   27.8830    9.7800   21.2080 C   0  0  0  0  0  0  0  0  0  0  0  0
   27.3000   10.8010   20.4650 C   0  0  0  0  0  0  0  0  0  0  0  0
   28.0930   11.9190   20.2200 C   0  0  0  0  0  0  0  0  0  0  0  0
   29.3850   11.9780   20.7130 C   0  0  0  0  0  0  0  0  0  0  0  0
    0.0000    0.0000    0.0000 H   0  0  0  0  0  0  0  0  0  0  0  0
    0.0000    0.0000    0.0000 H   0  0  0  0  0  0  0  0  0  0  0  0
    0.0000    0.0000    0.0000 H   0  0  0  0  0  0  0  0  0  0  0  0
    0.0000    0.0000    0.0000 H   0  0  0  0  0  0  0  0  0  0  0  0
    0.0000    0.0000    0.0000 H   0  0  0  0  0  0  0  0  0  0  0  0
    0.0000    0.0000    0.0000 H   0  0  0  0  0  0  0  0  0  0  0  0
    0.0000    0.0000    0.0000 H   0  0  0  0  0  0  0  0  0  0  0  0
    0.0000    0.0000    0.0000 H   0  0  0  0  0  0  0  0  0  0  0  0
    0.0000    0.0000    0.0000 H   0  0  0  0  0  0  0  0  0  0  0  0
    0.0000    0.0000    0.0000 H   0  0  0  0  0  0  0  0  0  0  0  0
    0.0000    0.0000    0.0000 H   0  0  0  0  0  0  0  0  0  0  0  0
    0.0000    0.0000    0.0000 H   0  0  0  0  0  0  0  0  0  0  0  0
    0.0000    0.0000    0.0000 H   0  0  0  0  0  0  0  0  0  0  0  0
   10.8731    5.1925   10.4944 N   0  0  0  0  0  0  0  0  0  0  0  0
    9.8815    6.2123   10.4294 C   0  0  0  0  0  0  0  0  0  0  0  0
    9.2085    6.4876   11.7574 C   0  0  0  0  0  0  0  0  0  0  0  0
   10.0915    6.8957   12.7298 O   0  0  0  0  0  0  0  0  0  0  0  0
   10.5627    4.2986   10.8856 H   0  0  0  0  0  0  0  0  0  0  0  0
   10.3181    7.1508   10.0665 H   0  0  0  0  0  0  0  0  0  0  0  0
    9.0995    5.9119    9.7135 H   0  0  0  0  0  0  0  0  0  0  0  0
    8.4568    7.2940   11.6250 H   0  0  0  0  0  0  0  0  0  0  0  0
    8.6606    5.5951   12.1268 H   0  0  0  0  0  0  0  0  0  0  0  0
   10.5298    7.7404   12.4981 H   0  0  0  0  0  0  0  0  0  0  0  0
  1  3  2  0
  1  4  1  0
  2  4  1  0
  1  5  1  0
  2  6  1  0
  5  6  1  0
  6  7  2  3
  5  8  1  0
  4 10  1  0
 10 11  2  0
 11 12  1  0
 12 13  2  0
 13 14  1  0
 10 15  1  0
 14 15  2  0
  9 16  2  0
  9 17  1  0
 14 18  1  0
 17 18  2  0
 18 19  1  0
 16 20  1  0
 19 20  2  0
  2 21  1  0
  7 22  1  0
  8 23  1  0
  8 24  1  0
  8 25  1  0
 11 26  1  0
 12 27  1  0
 13 28  1  0
 15 29  1  0
 16 30  1  0
 17 31  1  0
 19 32  1  0
 20 33  1  0
 34 35  1  0
 35 36  1  0
 36 37  1  0
 34 38  1  0
 35 39  1  0
 35 40  1  0
 36 41  1  0
 36 42  1  0
 37 43  1  0
  4 34  1  6
M  END
>  <attachment_point>  (137) 
21

>  <score>  (137) 
<NA>

$$$$
4djw
     RDKit          3D

 50 54  0  0  0  0  0  0  0  0999 V2000
   22.4950   11.8750   22.5810 C   0  0  0  0  0  0  0  0  0  0  0  0
   22.5380    9.4930   22.4640 N   0  0  0  0  0  0  0  0  0  0  0  0
   22.3600   13.0630   22.3480 O   0  0  0  0  0  0  0  0  0  0  0  0
   22.3390   10.6680   21.5610 C   0  0  2  0  0  0  0  0  0  0  0  0
   22.7860   11.3350   23.8120 N   0  0  0  0  0  0  0  0  0  0  0  0
   22.7800    9.9140   23.7010 C   0  0  0  0  0  0  0  0  0  0  0  0
   22.9970    9.1110   24.7490 N   0  0  0  0  0  0  0  0  0  0  0  0
   23.0220   12.1410   25.0180 C   0  0  0  0  0  0  0  0  0  0  0  0
   29.1260    9.8230   21.7090 N   0  0  0  0  0  0  0  0  0  0  0  0
   23.4880   10.6920   20.5300 C   0  0  0  0  0  0  0  0  0  0  0  0
   23.2110   10.7890   19.1730 C   0  0  0  0  0  0  0  0  0  0  0  0
   24.2350   10.8650   18.2430 C   0  0  0  0  0  0  0  0  0  0  0  0
   25.5500   10.8410   18.6560 C   0  0  0  0  0  0  0  0  0  0  0  0
   25.8710   10.7460   20.0070 C   0  0  0  0  0  0  0  0  0  0  0  0
   24.8260   10.6610   20.9430 C   0  0  0  0  0  0  0  0  0  0  0  0
   29.8540   10.9130   21.4510 C   0  0  0  0  0  0  0  0  0  0  0  0
   27.8830    9.7800   21.2080 C   0  0  0  0  0  0  0  0  0  0  0  0
   27.3000   10.8010   20.4650 C   0  0  0  0  0  0  0  0  0  0  0  0
   28.0930   11.9190   20.2200 C   0  0  0  0  0  0  0  0  0  0  0  0
   29.3850   11.9780   20.7130 C   0  0  0  0  0  0  0  0  0  0  0  0
    0.0000    0.0000    0.0000 H   0  0  0  0  0  0  0  0  0  0  0  0
    0.0000    0.0000    0.0000 H   0  0  0  0  0  0  0  0  0  0  0  0
    0.0000    0.0000    0.0000 H   0  0  0  0  0  0  0  0  0  0  0  0
    0.0000    0.0000    0.0000 H   0  0  0  0  0  0  0  0  0  0  0  0
    0.0000    0.0000    0.0000 H   0  0  0  0  0  0  0  0  0  0  0  0
    0.0000    0.0000    0.0000 H   0  0  0  0  0  0  0  0  0  0  0  0
    0.0000    0.0000    0.0000 H   0  0  0  0  0  0  0  0  0  0  0  0
    0.0000    0.0000    0.0000 H   0  0  0  0  0  0  0  0  0  0  0  0
    0.0000    0.0000    0.0000 H   0  0  0  0  0  0  0  0  0  0  0  0
    0.0000    0.0000    0.0000 H   0  0  0  0  0  0  0  0  0  0  0  0
    0.0000    0.0000    0.0000 H   0  0  0  0  0  0  0  0  0  0  0  0
    0.0000    0.0000    0.0000 H   0  0  0  0  0  0  0  0  0  0  0  0
    0.0000    0.0000    0.0000 H   0  0  0  0  0  0  0  0  0  0  0  0
   10.8475    5.1802   10.4697 C   0  0  0  0  0  0  0  0  0  0  0  0
   11.0637    4.0689    9.7422 C   0  0  0  0  0  0  0  0  0  0  0  0
   10.0669    3.6713    8.8406 C   0  0  0  0  0  0  0  0  0  0  0  0
    8.9110    4.4091    8.7192 C   0  0  0  0  0  0  0  0  0  0  0  0
    8.6997    5.5457    9.4691 C   0  0  0  0  0  0  0  0  0  0  0  0
    9.7118    5.9126   10.3562 C   0  0  0  0  0  0  0  0  0  0  0  0
    7.5277    6.2916    9.3442 O   0  0  0  0  0  0  0  0  0  0  0  0
    6.3790    5.5490    8.9080 C   0  0  0  0  0  0  0  0  0  0  0  0
    6.7977    4.8585    7.6172 C   0  0  0  0  0  0  0  0  0  0  0  0
    7.9172    4.0151    7.8221 O   0  0  0  0  0  0  0  0  0  0  0  0
   11.9814    3.5091    9.8587 H   0  0  0  0  0  0  0  0  0  0  0  0
   10.2764    2.7779    8.2770 H   0  0  0  0  0  0  0  0  0  0  0  0
    9.5464    6.8014   10.9425 H   0  0  0  0  0  0  0  0  0  0  0  0
    5.5211    6.1846    8.7014 H   0  0  0  0  0  0  0  0  0  0  0  0
    6.1642    4.7206    9.6355 H   0  0  0  0  0  0  0  0  0  0  0  0
    7.0208    5.6444    6.8823 H   0  0  0  0  0  0  0  0  0  0  0  0
    5.9647    4.1826    7.2690 H   0  0  0  0  0  0  0  0  0  0  0  0
  1  3  2  0
  1  4  1  0
  2  4  1  0
  1  5  1  0
  2  6  1  0
  5  6  1  0
  6  7  2  3
  5  8  1  0
  4 10  1  6
 10 11  2  0
 11 12  1  0
 12 13  2  0
 13 14  1  0
 10 15  1  0
 14 15  2  0
  9 16  2  0
  9 17  1  0
 14 18  1  0
 17 18  2  0
 18 19  1  0
 16 20  1  0
 19 20  2  0
  2 21  1  0
  7 22  1  0
  8 23  1  0
  8 24  1  0
  8 25  1  0
 11 26  1  0
 12 27  1  0
 13 28  1  0
 15 29  1  0
 16 30  1  0
 17 31  1  0
 19 32  1  0
 20 33  1  0
 34 35  2  0
 35 36  1  0
 36 37  2  0
 37 38  1  0
 38 39  2  0
 38 40  1  0
 40 41  1  0
 41 42  1  0
 42 43  1  0
 39 34  1  0
 43 37  1  0
 35 44  1  0
 36 45  1  0
 39 46  1  0
 41 47  1  0
 41 48  1  0
 42 49  1  0
 42 50  1  0
  4 34  1  0
M  END
>  <attachment_point>  (138) 
21

>  <score>  (138) 
<NA>

$$$$
4djw
     RDKit          3D

 45 47  0  0  0  0  0  0  0  0999 V2000
   22.4950   11.8750   22.5810 C   0  0  0  0  0  0  0  0  0  0  0  0
   22.5380    9.4930   22.4640 N   0  0  0  0  0  0  0  0  0  0  0  0
   22.3600   13.0630   22.3480 O   0  0  0  0  0  0  0  0  0  0  0  0
   22.3390   10.6680   21.5610 C   0  0  2  0  0  0  0  0  0  0  0  0
   22.7860   11.3350   23.8120 N   0  0  0  0  0  0  0  0  0  0  0  0
   22.7800    9.9140   23.7010 C   0  0  0  0  0  0  0  0  0  0  0  0
   22.9970    9.1110   24.7490 N   0  0  0  0  0  0  0  0  0  0  0  0
   23.0220   12.1410   25.0180 C   0  0  0  0  0  0  0  0  0  0  0  0
   29.1260    9.8230   21.7090 N   0  0  0  0  0  0  0  0  0  0  0  0
   23.4880   10.6920   20.5300 C   0  0  0  0  0  0  0  0  0  0  0  0
   23.2110   10.7890   19.1730 C   0  0  0  0  0  0  0  0  0  0  0  0
   24.2350   10.8650   18.2430 C   0  0  0  0  0  0  0  0  0  0  0  0
   25.5500   10.8410   18.6560 C   0  0  0  0  0  0  0  0  0  0  0  0
   25.8710   10.7460   20.0070 C   0  0  0  0  0  0  0  0  0  0  0  0
   24.8260   10.6610   20.9430 C   0  0  0  0  0  0  0  0  0  0  0  0
   29.8540   10.9130   21.4510 C   0  0  0  0  0  0  0  0  0  0  0  0
   27.8830    9.7800   21.2080 C   0  0  0  0  0  0  0  0  0  0  0  0
   27.3000   10.8010   20.4650 C   0  0  0  0  0  0  0  0  0  0  0  0
   28.0930   11.9190   20.2200 C   0  0  0  0  0  0  0  0  0  0  0  0
   29.3850   11.9780   20.7130 C   0  0  0  0  0  0  0  0  0  0  0  0
    0.0000    0.0000    0.0000 H   0  0  0  0  0  0  0  0  0  0  0  0
    0.0000    0.0000    0.0000 H   0  0  0  0  0  0  0  0  0  0  0  0
    0.0000    0.0000    0.0000 H   0  0  0  0  0  0  0  0  0  0  0  0
    0.0000    0.0000    0.0000 H   0  0  0  0  0  0  0  0  0  0  0  0
    0.0000    0.0000    0.0000 H   0  0  0  0  0  0  0  0  0  0  0  0
    0.0000    0.0000    0.0000 H   0  0  0  0  0  0  0  0  0  0  0  0
    0.0000    0.0000    0.0000 H   0  0  0  0  0  0  0  0  0  0  0  0
    0.0000    0.0000    0.0000 H   0  0  0  0  0  0  0  0  0  0  0  0
    0.0000    0.0000    0.0000 H   0  0  0  0  0  0  0  0  0  0  0  0
    0.0000    0.0000    0.0000 H   0  0  0  0  0  0  0  0  0  0  0  0
    0.0000    0.0000    0.0000 H   0  0  0  0  0  0  0  0  0  0  0  0
    0.0000    0.0000    0.0000 H   0  0  0  0  0  0  0  0  0  0  0  0
    0.0000    0.0000    0.0000 H   0  0  0  0  0  0  0  0  0  0  0  0
   10.7860    5.1508   10.4103 C   0  0  0  0  0  0  0  0  0  0  0  0
   10.4246    6.0358    9.7609 O   0  0  0  0  0  0  0  0  0  0  0  0
   10.5261    3.8338   10.4987 N   0  0  0  0  0  0  0  0  0  0  0  0
    9.5431    3.1760    9.6038 C   0  0  0  0  0  0  0  0  0  0  0  0
   10.0071    3.3658    8.1631 C   0  0  0  0  0  0  0  0  0  0  0  0
    9.1124    2.7648    7.3105 O   0  0  0  0  0  0  0  0  0  0  0  0
   11.0188    3.2194   11.2162 H   0  0  0  0  0  0  0  0  0  0  0  0
    9.5819    2.0945    9.7974 H   0  0  0  0  0  0  0  0  0  0  0  0
    8.5357    3.5701    9.7456 H   0  0  0  0  0  0  0  0  0  0  0  0
   10.0963    4.4670    8.0018 H   0  0  0  0  0  0  0  0  0  0  0  0
   10.9976    2.9073    7.9936 H   0  0  0  0  0  0  0  0  0  0  0  0
    8.9775    3.3412    6.5163 H   0  0  0  0  0  0  0  0  0  0  0  0
  1  3  2  0
  1  4  1  0
  2  4  1  0
  1  5  1  0
  2  6  1  0
  5  6  1  0
  6  7  2  3
  5  8  1  0
  4 10  1  0
 10 11  2  0
 11 12  1  0
 12 13  2  0
 13 14  1  0
 10 15  1  0
 14 15  2  0
  9 16  2  0
  9 17  1  0
 14 18  1  0
 17 18  2  0
 18 19  1  0
 16 20  1  0
 19 20  2  0
  2 21  1  0
  7 22  1  0
  8 23  1  0
  8 24  1  0
  8 25  1  0
 11 26  1  0
 12 27  1  0
 13 28  1  0
 15 29  1  0
 16 30  1  0
 17 31  1  0
 19 32  1  0
 20 33  1  0
 34 35  2  0
 34 36  1  0
 36 37  1  0
 37 38  1  0
 38 39  1  0
 36 40  1  0
 37 41  1  0
 37 42  1  0
 38 43  1  0
 38 44  1  0
 39 45  1  0
  4 34  1  6
M  END
>  <attachment_point>  (139) 
21

>  <score>  (139) 
<NA>

$$$$
4djw
     RDKit          3D

 47 51  0  0  0  0  0  0  0  0999 V2000
   22.4950   11.8750   22.5810 C   0  0  0  0  0  0  0  0  0  0  0  0
   22.5380    9.4930   22.4640 N   0  0  0  0  0  0  0  0  0  0  0  0
   22.3600   13.0630   22.3480 O   0  0  0  0  0  0  0  0  0  0  0  0
   22.3390   10.6680   21.5610 C   0  0  2  0  0  0  0  0  0  0  0  0
   22.7860   11.3350   23.8120 N   0  0  0  0  0  0  0  0  0  0  0  0
   22.7800    9.9140   23.7010 C   0  0  0  0  0  0  0  0  0  0  0  0
   22.9970    9.1110   24.7490 N   0  0  0  0  0  0  0  0  0  0  0  0
   23.0220   12.1410   25.0180 C   0  0  0  0  0  0  0  0  0  0  0  0
   29.1260    9.8230   21.7090 N   0  0  0  0  0  0  0  0  0  0  0  0
   23.4880   10.6920   20.5300 C   0  0  0  0  0  0  0  0  0  0  0  0
   23.2110   10.7890   19.1730 C   0  0  0  0  0  0  0  0  0  0  0  0
   24.2350   10.8650   18.2430 C   0  0  0  0  0  0  0  0  0  0  0  0
   25.5500   10.8410   18.6560 C   0  0  0  0  0  0  0  0  0  0  0  0
   25.8710   10.7460   20.0070 C   0  0  0  0  0  0  0  0  0  0  0  0
   24.8260   10.6610   20.9430 C   0  0  0  0  0  0  0  0  0  0  0  0
   29.8540   10.9130   21.4510 C   0  0  0  0  0  0  0  0  0  0  0  0
   27.8830    9.7800   21.2080 C   0  0  0  0  0  0  0  0  0  0  0  0
   27.3000   10.8010   20.4650 C   0  0  0  0  0  0  0  0  0  0  0  0
   28.0930   11.9190   20.2200 C   0  0  0  0  0  0  0  0  0  0  0  0
   29.3850   11.9780   20.7130 C   0  0  0  0  0  0  0  0  0  0  0  0
    0.0000    0.0000    0.0000 H   0  0  0  0  0  0  0  0  0  0  0  0
    0.0000    0.0000    0.0000 H   0  0  0  0  0  0  0  0  0  0  0  0
    0.0000    0.0000    0.0000 H   0  0  0  0  0  0  0  0  0  0  0  0
    0.0000    0.0000    0.0000 H   0  0  0  0  0  0  0  0  0  0  0  0
    0.0000    0.0000    0.0000 H   0  0  0  0  0  0  0  0  0  0  0  0
    0.0000    0.0000    0.0000 H   0  0  0  0  0  0  0  0  0  0  0  0
    0.0000    0.0000    0.0000 H   0  0  0  0  0  0  0  0  0  0  0  0
    0.0000    0.0000    0.0000 H   0  0  0  0  0  0  0  0  0  0  0  0
    0.0000    0.0000    0.0000 H   0  0  0  0  0  0  0  0  0  0  0  0
    0.0000    0.0000    0.0000 H   0  0  0  0  0  0  0  0  0  0  0  0
    0.0000    0.0000    0.0000 H   0  0  0  0  0  0  0  0  0  0  0  0
    0.0000    0.0000    0.0000 H   0  0  0  0  0  0  0  0  0  0  0  0
    0.0000    0.0000    0.0000 H   0  0  0  0  0  0  0  0  0  0  0  0
   10.8674    5.1898   10.4890 C   0  0  0  0  0  0  0  0  0  0  0  0
   10.9723    5.2195    9.1231 C   0  0  0  0  0  0  0  0  0  0  0  0
    9.9287    4.7252    8.4168 C   0  0  0  0  0  0  0  0  0  0  0  0
    9.8316    4.6607    7.0143 C   0  0  0  0  0  0  0  0  0  0  0  0
    8.7198    4.1366    6.4337 C   0  0  0  0  0  0  0  0  0  0  0  0
    7.6532    3.6508    7.1160 C   0  0  0  0  0  0  0  0  0  0  0  0
    7.7283    3.7049    8.4977 C   0  0  0  0  0  0  0  0  0  0  0  0
    8.8683    4.2427    9.1231 C   0  0  0  0  0  0  0  0  0  0  0  0
    9.3386    4.4835   10.7438 S   0  0  0  0  0  0  0  0  0  0  0  0
   11.9162    5.6517    8.6982 H   0  0  0  0  0  0  0  0  0  0  0  0
   10.6234    5.0193    6.3717 H   0  0  0  0  0  0  0  0  0  0  0  0
    8.6668    4.0968    5.3395 H   0  0  0  0  0  0  0  0  0  0  0  0
    6.7864    3.2420    6.6507 H   0  0  0  0  0  0  0  0  0  0  0  0
    6.9541    3.3543    9.1336 H   0  0  0  0  0  0  0  0  0  0  0  0
  1  3  2  0
  1  4  1  0
  2  4  1  0
  1  5  1  0
  2  6  1  0
  5  6  1  0
  6  7  2  3
  5  8  1  0
  4 10  1  6
 10 11  2  0
 11 12  1  0
 12 13  2  0
 13 14  1  0
 10 15  1  0
 14 15  2  0
  9 16  2  0
  9 17  1  0
 14 18  1  0
 17 18  2  0
 18 19  1  0
 16 20  1  0
 19 20  2  0
  2 21  1  0
  7 22  1  0
  8 23  1  0
  8 24  1  0
  8 25  1  0
 11 26  1  0
 12 27  1  0
 13 28  1  0
 15 29  1  0
 16 30  1  0
 17 31  1  0
 19 32  1  0
 20 33  1  0
 34 35  2  0
 35 36  1  0
 36 37  2  0
 37 38  1  0
 38 39  2  0
 39 40  1  0
 40 41  2  0
 41 42  1  0
 42 34  1  0
 41 36  1  0
 35 43  1  0
 37 44  1  0
 38 45  1  0
 39 46  1  0
 40 47  1  0
  4 34  1  0
M  END
>  <attachment_point>  (140) 
21

>  <score>  (140) 
<NA>

$$$$
4djw
     RDKit          3D

 53 56  0  0  0  0  0  0  0  0999 V2000
   22.4950   11.8750   22.5810 C   0  0  0  0  0  0  0  0  0  0  0  0
   22.5380    9.4930   22.4640 N   0  0  0  0  0  0  0  0  0  0  0  0
   22.3600   13.0630   22.3480 O   0  0  0  0  0  0  0  0  0  0  0  0
   22.3390   10.6680   21.5610 C   0  0  2  0  0  0  0  0  0  0  0  0
   22.7860   11.3350   23.8120 N   0  0  0  0  0  0  0  0  0  0  0  0
   22.7800    9.9140   23.7010 C   0  0  0  0  0  0  0  0  0  0  0  0
   22.9970    9.1110   24.7490 N   0  0  0  0  0  0  0  0  0  0  0  0
   23.0220   12.1410   25.0180 C   0  0  0  0  0  0  0  0  0  0  0  0
   29.1260    9.8230   21.7090 N   0  0  0  0  0  0  0  0  0  0  0  0
   23.4880   10.6920   20.5300 C   0  0  0  0  0  0  0  0  0  0  0  0
   23.2110   10.7890   19.1730 C   0  0  0  0  0  0  0  0  0  0  0  0
   24.2350   10.8650   18.2430 C   0  0  0  0  0  0  0  0  0  0  0  0
   25.5500   10.8410   18.6560 C   0  0  0  0  0  0  0  0  0  0  0  0
   25.8710   10.7460   20.0070 C   0  0  0  0  0  0  0  0  0  0  0  0
   24.8260   10.6610   20.9430 C   0  0  0  0  0  0  0  0  0  0  0  0
   29.8540   10.9130   21.4510 C   0  0  0  0  0  0  0  0  0  0  0  0
   27.8830    9.7800   21.2080 C   0  0  0  0  0  0  0  0  0  0  0  0
   27.3000   10.8010   20.4650 C   0  0  0  0  0  0  0  0  0  0  0  0
   28.0930   11.9190   20.2200 C   0  0  0  0  0  0  0  0  0  0  0  0
   29.3850   11.9780   20.7130 C   0  0  0  0  0  0  0  0  0  0  0  0
    0.0000    0.0000    0.0000 H   0  0  0  0  0  0  0  0  0  0  0  0
    0.0000    0.0000    0.0000 H   0  0  0  0  0  0  0  0  0  0  0  0
    0.0000    0.0000    0.0000 H   0  0  0  0  0  0  0  0  0  0  0  0
    0.0000    0.0000    0.0000 H   0  0  0  0  0  0  0  0  0  0  0  0
    0.0000    0.0000    0.0000 H   0  0  0  0  0  0  0  0  0  0  0  0
    0.0000    0.0000    0.0000 H   0  0  0  0  0  0  0  0  0  0  0  0
    0.0000    0.0000    0.0000 H   0  0  0  0  0  0  0  0  0  0  0  0
    0.0000    0.0000    0.0000 H   0  0  0  0  0  0  0  0  0  0  0  0
    0.0000    0.0000    0.0000 H   0  0  0  0  0  0  0  0  0  0  0  0
    0.0000    0.0000    0.0000 H   0  0  0  0  0  0  0  0  0  0  0  0
    0.0000    0.0000    0.0000 H   0  0  0  0  0  0  0  0  0  0  0  0
    0.0000    0.0000    0.0000 H   0  0  0  0  0  0  0  0  0  0  0  0
    0.0000    0.0000    0.0000 H   0  0  0  0  0  0  0  0  0  0  0  0
   10.8693    5.1906   10.4908 C   0  0  0  0  0  0  0  0  0  0  0  0
    9.5482    5.6957   11.0350 C   0  0  0  0  0  0  0  0  0  0  0  0
    9.3253    5.1213   12.4113 C   0  0  0  0  0  0  0  0  0  0  0  0
   10.3742    5.4913   13.3732 C   0  0  0  0  0  0  0  0  0  0  0  0
   10.2906    6.6226   14.1489 C   0  0  0  0  0  0  0  0  0  0  0  0
   11.2999    6.9389   15.0457 C   0  0  0  0  0  0  0  0  0  0  0  0
   12.3976    6.0925   15.1462 C   0  0  0  0  0  0  0  0  0  0  0  0
   12.4969    4.9691   14.3865 C   0  0  0  0  0  0  0  0  0  0  0  0
   11.4752    4.6852   13.5058 C   0  0  0  0  0  0  0  0  0  0  0  0
   11.0537    5.6379    9.4851 H   0  0  0  0  0  0  0  0  0  0  0  0
   10.8998    4.0776   10.4441 H   0  0  0  0  0  0  0  0  0  0  0  0
    9.5829    6.7874   11.0086 H   0  0  0  0  0  0  0  0  0  0  0  0
    8.7101    5.3489   10.3976 H   0  0  0  0  0  0  0  0  0  0  0  0
    8.3339    5.3692   12.8215 H   0  0  0  0  0  0  0  0  0  0  0  0
    9.3322    4.0026   12.2841 H   0  0  0  0  0  0  0  0  0  0  0  0
    9.4482    7.3073   14.0976 H   0  0  0  0  0  0  0  0  0  0  0  0
   11.2782    7.8097   15.6709 H   0  0  0  0  0  0  0  0  0  0  0  0
   13.2055    6.3177   15.8433 H   0  0  0  0  0  0  0  0  0  0  0  0
   13.3394    4.2976   14.4478 H   0  0  0  0  0  0  0  0  0  0  0  0
   11.5698    3.7828   12.9053 H   0  0  0  0  0  0  0  0  0  0  0  0
  1  3  2  0
  1  4  1  0
  2  4  1  0
  1  5  1  0
  2  6  1  0
  5  6  1  0
  6  7  2  3
  5  8  1  0
  4 10  1  0
 10 11  2  0
 11 12  1  0
 12 13  2  0
 13 14  1  0
 10 15  1  0
 14 15  2  0
  9 16  2  0
  9 17  1  0
 14 18  1  0
 17 18  2  0
 18 19  1  0
 16 20  1  0
 19 20  2  0
  2 21  1  0
  7 22  1  0
  8 23  1  0
  8 24  1  0
  8 25  1  0
 11 26  1  0
 12 27  1  0
 13 28  1  0
 15 29  1  0
 16 30  1  0
 17 31  1  0
 19 32  1  0
 20 33  1  0
 34 35  1  0
 35 36  1  0
 36 37  1  0
 37 38  2  0
 38 39  1  0
 39 40  2  0
 40 41  1  0
 41 42  2  0
 42 37  1  0
 34 43  1  0
 34 44  1  0
 35 45  1  0
 35 46  1  0
 36 47  1  0
 36 48  1  0
 38 49  1  0
 39 50  1  0
 40 51  1  0
 41 52  1  0
 42 53  1  0
  4 34  1  6
M  END
>  <attachment_point>  (141) 
21

>  <score>  (141) 
<NA>

$$$$
4djw
     RDKit          3D

 48 51  0  0  0  0  0  0  0  0999 V2000
   22.4950   11.8750   22.5810 C   0  0  0  0  0  0  0  0  0  0  0  0
   22.5380    9.4930   22.4640 N   0  0  0  0  0  0  0  0  0  0  0  0
   22.3600   13.0630   22.3480 O   0  0  0  0  0  0  0  0  0  0  0  0
   22.3390   10.6680   21.5610 C   0  0  2  0  0  0  0  0  0  0  0  0
   22.7860   11.3350   23.8120 N   0  0  0  0  0  0  0  0  0  0  0  0
   22.7800    9.9140   23.7010 C   0  0  0  0  0  0  0  0  0  0  0  0
   22.9970    9.1110   24.7490 N   0  0  0  0  0  0  0  0  0  0  0  0
   23.0220   12.1410   25.0180 C   0  0  0  0  0  0  0  0  0  0  0  0
   29.1260    9.8230   21.7090 N   0  0  0  0  0  0  0  0  0  0  0  0
   23.4880   10.6920   20.5300 C   0  0  0  0  0  0  0  0  0  0  0  0
   23.2110   10.7890   19.1730 C   0  0  0  0  0  0  0  0  0  0  0  0
   24.2350   10.8650   18.2430 C   0  0  0  0  0  0  0  0  0  0  0  0
   25.5500   10.8410   18.6560 C   0  0  0  0  0  0  0  0  0  0  0  0
   25.8710   10.7460   20.0070 C   0  0  0  0  0  0  0  0  0  0  0  0
   24.8260   10.6610   20.9430 C   0  0  0  0  0  0  0  0  0  0  0  0
   29.8540   10.9130   21.4510 C   0  0  0  0  0  0  0  0  0  0  0  0
   27.8830    9.7800   21.2080 C   0  0  0  0  0  0  0  0  0  0  0  0
   27.3000   10.8010   20.4650 C   0  0  0  0  0  0  0  0  0  0  0  0
   28.0930   11.9190   20.2200 C   0  0  0  0  0  0  0  0  0  0  0  0
   29.3850   11.9780   20.7130 C   0  0  0  0  0  0  0  0  0  0  0  0
    0.0000    0.0000    0.0000 H   0  0  0  0  0  0  0  0  0  0  0  0
    0.0000    0.0000    0.0000 H   0  0  0  0  0  0  0  0  0  0  0  0
    0.0000    0.0000    0.0000 H   0  0  0  0  0  0  0  0  0  0  0  0
    0.0000    0.0000    0.0000 H   0  0  0  0  0  0  0  0  0  0  0  0
    0.0000    0.0000    0.0000 H   0  0  0  0  0  0  0  0  0  0  0  0
    0.0000    0.0000    0.0000 H   0  0  0  0  0  0  0  0  0  0  0  0
    0.0000    0.0000    0.0000 H   0  0  0  0  0  0  0  0  0  0  0  0
    0.0000    0.0000    0.0000 H   0  0  0  0  0  0  0  0  0  0  0  0
    0.0000    0.0000    0.0000 H   0  0  0  0  0  0  0  0  0  0  0  0
    0.0000    0.0000    0.0000 H   0  0  0  0  0  0  0  0  0  0  0  0
    0.0000    0.0000    0.0000 H   0  0  0  0  0  0  0  0  0  0  0  0
    0.0000    0.0000    0.0000 H   0  0  0  0  0  0  0  0  0  0  0  0
    0.0000    0.0000    0.0000 H   0  0  0  0  0  0  0  0  0  0  0  0
   10.8681    5.1901   10.4896 C   0  0  0  0  0  0  0  0  0  0  0  0
   10.2006    4.1935   10.7843 O   0  0  0  0  0  0  0  0  0  0  0  0
   10.7046    5.8630    9.2916 N   0  0  0  0  0  0  0  0  0  0  0  0
    9.7571    5.5177    8.2290 C   0  0  0  0  0  0  0  0  0  0  0  0
   10.6113    5.6690    7.0035 C   0  0  0  0  0  0  0  0  0  0  0  0
   11.8230    6.4854    7.4028 C   0  0  0  0  0  0  0  0  0  0  0  0
   11.3779    7.0413    8.7550 C   0  0  0  0  0  0  0  0  0  0  0  0
    9.3253    4.5268    8.3545 H   0  0  0  0  0  0  0  0  0  0  0  0
    9.0137    6.3370    8.2152 H   0  0  0  0  0  0  0  0  0  0  0  0
   10.0882    6.1797    6.1634 H   0  0  0  0  0  0  0  0  0  0  0  0
   10.9288    4.6535    6.6674 H   0  0  0  0  0  0  0  0  0  0  0  0
   12.6505    5.7697    7.6040 H   0  0  0  0  0  0  0  0  0  0  0  0
   12.0778    7.2703    6.6929 H   0  0  0  0  0  0  0  0  0  0  0  0
   10.5903    7.7938    8.5689 H   0  0  0  0  0  0  0  0  0  0  0  0
   12.2088    7.3806    9.3685 H   0  0  0  0  0  0  0  0  0  0  0  0
  1  3  2  0
  1  4  1  0
  2  4  1  0
  1  5  1  0
  2  6  1  0
  5  6  1  0
  6  7  2  3
  5  8  1  0
  4 10  1  0
 10 11  2  0
 11 12  1  0
 12 13  2  0
 13 14  1  0
 10 15  1  0
 14 15  2  0
  9 16  2  0
  9 17  1  0
 14 18  1  0
 17 18  2  0
 18 19  1  0
 16 20  1  0
 19 20  2  0
  2 21  1  0
  7 22  1  0
  8 23  1  0
  8 24  1  0
  8 25  1  0
 11 26  1  0
 12 27  1  0
 13 28  1  0
 15 29  1  0
 16 30  1  0
 17 31  1  0
 19 32  1  0
 20 33  1  0
 34 35  2  0
 34 36  1  0
 36 37  1  0
 37 38  1  0
 38 39  1  0
 39 40  1  0
 40 36  1  0
 37 41  1  0
 37 42  1  0
 38 43  1  0
 38 44  1  0
 39 45  1  0
 39 46  1  0
 40 47  1  0
 40 48  1  0
  4 34  1  6
M  END
>  <attachment_point>  (142) 
21

>  <score>  (142) 
<NA>

$$$$
4djw
     RDKit          3D

 54 57  0  0  0  0  0  0  0  0999 V2000
   22.4950   11.8750   22.5810 C   0  0  0  0  0  0  0  0  0  0  0  0
   22.5380    9.4930   22.4640 N   0  0  0  0  0  0  0  0  0  0  0  0
   22.3600   13.0630   22.3480 O   0  0  0  0  0  0  0  0  0  0  0  0
   22.3390   10.6680   21.5610 C   0  0  2  0  0  0  0  0  0  0  0  0
   22.7860   11.3350   23.8120 N   0  0  0  0  0  0  0  0  0  0  0  0
   22.7800    9.9140   23.7010 C   0  0  0  0  0  0  0  0  0  0  0  0
   22.9970    9.1110   24.7490 N   0  0  0  0  0  0  0  0  0  0  0  0
   23.0220   12.1410   25.0180 C   0  0  0  0  0  0  0  0  0  0  0  0
   29.1260    9.8230   21.7090 N   0  0  0  0  0  0  0  0  0  0  0  0
   23.4880   10.6920   20.5300 C   0  0  0  0  0  0  0  0  0  0  0  0
   23.2110   10.7890   19.1730 C   0  0  0  0  0  0  0  0  0  0  0  0
   24.2350   10.8650   18.2430 C   0  0  0  0  0  0  0  0  0  0  0  0
   25.5500   10.8410   18.6560 C   0  0  0  0  0  0  0  0  0  0  0  0
   25.8710   10.7460   20.0070 C   0  0  0  0  0  0  0  0  0  0  0  0
   24.8260   10.6610   20.9430 C   0  0  0  0  0  0  0  0  0  0  0  0
   29.8540   10.9130   21.4510 C   0  0  0  0  0  0  0  0  0  0  0  0
   27.8830    9.7800   21.2080 C   0  0  0  0  0  0  0  0  0  0  0  0
   27.3000   10.8010   20.4650 C   0  0  0  0  0  0  0  0  0  0  0  0
   28.0930   11.9190   20.2200 C   0  0  0  0  0  0  0  0  0  0  0  0
   29.3850   11.9780   20.7130 C   0  0  0  0  0  0  0  0  0  0  0  0
    0.0000    0.0000    0.0000 H   0  0  0  0  0  0  0  0  0  0  0  0
    0.0000    0.0000    0.0000 H   0  0  0  0  0  0  0  0  0  0  0  0
    0.0000    0.0000    0.0000 H   0  0  0  0  0  0  0  0  0  0  0  0
    0.0000    0.0000    0.0000 H   0  0  0  0  0  0  0  0  0  0  0  0
    0.0000    0.0000    0.0000 H   0  0  0  0  0  0  0  0  0  0  0  0
    0.0000    0.0000    0.0000 H   0  0  0  0  0  0  0  0  0  0  0  0
    0.0000    0.0000    0.0000 H   0  0  0  0  0  0  0  0  0  0  0  0
    0.0000    0.0000    0.0000 H   0  0  0  0  0  0  0  0  0  0  0  0
    0.0000    0.0000    0.0000 H   0  0  0  0  0  0  0  0  0  0  0  0
    0.0000    0.0000    0.0000 H   0  0  0  0  0  0  0  0  0  0  0  0
    0.0000    0.0000    0.0000 H   0  0  0  0  0  0  0  0  0  0  0  0
    0.0000    0.0000    0.0000 H   0  0  0  0  0  0  0  0  0  0  0  0
    0.0000    0.0000    0.0000 H   0  0  0  0  0  0  0  0  0  0  0  0
   10.8457    5.1793   10.4679 C   0  0  0  0  0  0  0  0  0  0  0  0
   11.5248    5.2466    9.2076 N   0  0  0  0  0  0  0  0  0  0  0  0
   10.7595    4.8310    8.0935 C   0  0  0  0  0  0  0  0  0  0  0  0
   11.4871    4.2516    6.9552 C   0  0  0  0  0  0  0  0  0  0  0  0
   12.8763    4.4927    6.8981 N   0  0  0  0  0  0  0  0  0  0  0  0
   13.5404    4.2495    5.7051 C   0  0  0  0  0  0  0  0  0  0  0  0
   13.4794    5.2559    7.8975 C   0  0  0  0  0  0  0  0  0  0  0  0
   12.8811    4.8034    9.2376 C   0  0  0  0  0  0  0  0  0  0  0  0
   10.6229    4.1661   10.8112 H   0  0  0  0  0  0  0  0  0  0  0  0
   10.0500    5.9065   10.6114 H   0  0  0  0  0  0  0  0  0  0  0  0
    9.9544    4.1111    8.4264 H   0  0  0  0  0  0  0  0  0  0  0  0
   10.1675    5.7271    7.7382 H   0  0  0  0  0  0  0  0  0  0  0  0
   11.3275    3.1345    6.9179 H   0  0  0  0  0  0  0  0  0  0  0  0
   11.0381    4.6074    5.9799 H   0  0  0  0  0  0  0  0  0  0  0  0
   14.2412    3.3758    5.8310 H   0  0  0  0  0  0  0  0  0  0  0  0
   14.2184    5.1085    5.4534 H   0  0  0  0  0  0  0  0  0  0  0  0
   12.8954    4.0770    4.8361 H   0  0  0  0  0  0  0  0  0  0  0  0
   13.2725    6.3509    7.7729 H   0  0  0  0  0  0  0  0  0  0  0  0
   14.5620    5.0604    7.9703 H   0  0  0  0  0  0  0  0  0  0  0  0
   12.8739    3.6838    9.2470 H   0  0  0  0  0  0  0  0  0  0  0  0
   13.3914    5.2486   10.0882 H   0  0  0  0  0  0  0  0  0  0  0  0
  1  3  2  0
  1  4  1  0
  2  4  1  0
  1  5  1  0
  2  6  1  0
  5  6  1  0
  6  7  2  3
  5  8  1  0
  4 10  1  0
 10 11  2  0
 11 12  1  0
 12 13  2  0
 13 14  1  0
 10 15  1  0
 14 15  2  0
  9 16  2  0
  9 17  1  0
 14 18  1  0
 17 18  2  0
 18 19  1  0
 16 20  1  0
 19 20  2  0
  2 21  1  0
  7 22  1  0
  8 23  1  0
  8 24  1  0
  8 25  1  0
 11 26  1  0
 12 27  1  0
 13 28  1  0
 15 29  1  0
 16 30  1  0
 17 31  1  0
 19 32  1  0
 20 33  1  0
 34 35  1  0
 35 36  1  0
 36 37  1  0
 37 38  1  0
 38 39  1  0
 38 40  1  0
 40 41  1  0
 41 35  1  0
 34 42  1  0
 34 43  1  0
 36 44  1  0
 36 45  1  0
 37 46  1  0
 37 47  1  0
 39 48  1  0
 39 49  1  0
 39 50  1  0
 40 51  1  0
 40 52  1  0
 41 53  1  0
 41 54  1  0
  4 34  1  6
M  END
>  <attachment_point>  (143) 
21

>  <score>  (143) 
<NA>

$$$$
4djw
     RDKit          3D

 47 50  0  0  0  0  0  0  0  0999 V2000
   22.4950   11.8750   22.5810 C   0  0  0  0  0  0  0  0  0  0  0  0
   22.5380    9.4930   22.4640 N   0  0  0  0  0  0  0  0  0  0  0  0
   22.3600   13.0630   22.3480 O   0  0  0  0  0  0  0  0  0  0  0  0
   22.3390   10.6680   21.5610 C   0  0  2  0  0  0  0  0  0  0  0  0
   22.7860   11.3350   23.8120 N   0  0  0  0  0  0  0  0  0  0  0  0
   22.7800    9.9140   23.7010 C   0  0  0  0  0  0  0  0  0  0  0  0
   22.9970    9.1110   24.7490 N   0  0  0  0  0  0  0  0  0  0  0  0
   23.0220   12.1410   25.0180 C   0  0  0  0  0  0  0  0  0  0  0  0
   29.1260    9.8230   21.7090 N   0  0  0  0  0  0  0  0  0  0  0  0
   23.4880   10.6920   20.5300 C   0  0  0  0  0  0  0  0  0  0  0  0
   23.2110   10.7890   19.1730 C   0  0  0  0  0  0  0  0  0  0  0  0
   24.2350   10.8650   18.2430 C   0  0  0  0  0  0  0  0  0  0  0  0
   25.5500   10.8410   18.6560 C   0  0  0  0  0  0  0  0  0  0  0  0
   25.8710   10.7460   20.0070 C   0  0  0  0  0  0  0  0  0  0  0  0
   24.8260   10.6610   20.9430 C   0  0  0  0  0  0  0  0  0  0  0  0
   29.8540   10.9130   21.4510 C   0  0  0  0  0  0  0  0  0  0  0  0
   27.8830    9.7800   21.2080 C   0  0  0  0  0  0  0  0  0  0  0  0
   27.3000   10.8010   20.4650 C   0  0  0  0  0  0  0  0  0  0  0  0
   28.0930   11.9190   20.2200 C   0  0  0  0  0  0  0  0  0  0  0  0
   29.3850   11.9780   20.7130 C   0  0  0  0  0  0  0  0  0  0  0  0
    0.0000    0.0000    0.0000 H   0  0  0  0  0  0  0  0  0  0  0  0
    0.0000    0.0000    0.0000 H   0  0  0  0  0  0  0  0  0  0  0  0
    0.0000    0.0000    0.0000 H   0  0  0  0  0  0  0  0  0  0  0  0
    0.0000    0.0000    0.0000 H   0  0  0  0  0  0  0  0  0  0  0  0
    0.0000    0.0000    0.0000 H   0  0  0  0  0  0  0  0  0  0  0  0
    0.0000    0.0000    0.0000 H   0  0  0  0  0  0  0  0  0  0  0  0
    0.0000    0.0000    0.0000 H   0  0  0  0  0  0  0  0  0  0  0  0
    0.0000    0.0000    0.0000 H   0  0  0  0  0  0  0  0  0  0  0  0
    0.0000    0.0000    0.0000 H   0  0  0  0  0  0  0  0  0  0  0  0
    0.0000    0.0000    0.0000 H   0  0  0  0  0  0  0  0  0  0  0  0
    0.0000    0.0000    0.0000 H   0  0  0  0  0  0  0  0  0  0  0  0
    0.0000    0.0000    0.0000 H   0  0  0  0  0  0  0  0  0  0  0  0
    0.0000    0.0000    0.0000 H   0  0  0  0  0  0  0  0  0  0  0  0
   10.8472    5.1801   10.4694 C   0  0  0  0  0  0  0  0  0  0  0  0
   11.0834    4.0559    9.7515 C   0  0  0  0  0  0  0  0  0  0  0  0
   10.0828    3.6707    8.8567 C   0  0  0  0  0  0  0  0  0  0  0  0
    8.9150    4.3898    8.7057 C   0  0  0  0  0  0  0  0  0  0  0  0
    8.6962    5.5317    9.4473 C   0  0  0  0  0  0  0  0  0  0  0  0
    7.4653    6.3153    9.3079 C   0  0  0  0  0  0  0  0  0  0  0  0
    7.3296    7.3380   10.0084 O   0  0  0  0  0  0  0  0  0  0  0  0
    6.4543    5.9677    8.4356 O   0  0  0  0  0  0  0  0  0  0  0  0
    9.6898    5.9124   10.3348 C   0  0  0  0  0  0  0  0  0  0  0  0
   11.9783    3.4689    9.8398 H   0  0  0  0  0  0  0  0  0  0  0  0
   10.1965    2.7785    8.2427 H   0  0  0  0  0  0  0  0  0  0  0  0
    8.1301    4.1053    8.0171 H   0  0  0  0  0  0  0  0  0  0  0  0
    5.8631    6.6801    7.9765 H   0  0  0  0  0  0  0  0  0  0  0  0
    9.5157    6.8051   10.9128 H   0  0  0  0  0  0  0  0  0  0  0  0
  1  3  2  0
  1  4  1  0
  2  4  1  0
  1  5  1  0
  2  6  1  0
  5  6  1  0
  6  7  2  3
  5  8  1  0
  4 10  1  6
 10 11  2  0
 11 12  1  0
 12 13  2  0
 13 14  1  0
 10 15  1  0
 14 15  2  0
  9 16  2  0
  9 17  1  0
 14 18  1  0
 17 18  2  0
 18 19  1  0
 16 20  1  0
 19 20  2  0
  2 21  1  0
  7 22  1  0
  8 23  1  0
  8 24  1  0
  8 25  1  0
 11 26  1  0
 12 27  1  0
 13 28  1  0
 15 29  1  0
 16 30  1  0
 17 31  1  0
 19 32  1  0
 20 33  1  0
 34 35  2  0
 35 36  1  0
 36 37  2  0
 37 38  1  0
 38 39  1  0
 39 40  2  0
 39 41  1  0
 38 42  2  0
 42 34  1  0
 35 43  1  0
 36 44  1  0
 37 45  1  0
 41 46  1  0
 42 47  1  0
  4 34  1  0
M  END
>  <attachment_point>  (144) 
21

>  <score>  (144) 
<NA>

$$$$
4djw
     RDKit          3D

 44 46  0  0  0  0  0  0  0  0999 V2000
   22.4950   11.8750   22.5810 C   0  0  0  0  0  0  0  0  0  0  0  0
   22.5380    9.4930   22.4640 N   0  0  0  0  0  0  0  0  0  0  0  0
   22.3600   13.0630   22.3480 O   0  0  0  0  0  0  0  0  0  0  0  0
   22.3390   10.6680   21.5610 C   0  0  2  0  0  0  0  0  0  0  0  0
   22.7860   11.3350   23.8120 N   0  0  0  0  0  0  0  0  0  0  0  0
   22.7800    9.9140   23.7010 C   0  0  0  0  0  0  0  0  0  0  0  0
   22.9970    9.1110   24.7490 N   0  0  0  0  0  0  0  0  0  0  0  0
   23.0220   12.1410   25.0180 C   0  0  0  0  0  0  0  0  0  0  0  0
   29.1260    9.8230   21.7090 N   0  0  0  0  0  0  0  0  0  0  0  0
   23.4880   10.6920   20.5300 C   0  0  0  0  0  0  0  0  0  0  0  0
   23.2110   10.7890   19.1730 C   0  0  0  0  0  0  0  0  0  0  0  0
   24.2350   10.8650   18.2430 C   0  0  0  0  0  0  0  0  0  0  0  0
   25.5500   10.8410   18.6560 C   0  0  0  0  0  0  0  0  0  0  0  0
   25.8710   10.7460   20.0070 C   0  0  0  0  0  0  0  0  0  0  0  0
   24.8260   10.6610   20.9430 C   0  0  0  0  0  0  0  0  0  0  0  0
   29.8540   10.9130   21.4510 C   0  0  0  0  0  0  0  0  0  0  0  0
   27.8830    9.7800   21.2080 C   0  0  0  0  0  0  0  0  0  0  0  0
   27.3000   10.8010   20.4650 C   0  0  0  0  0  0  0  0  0  0  0  0
   28.0930   11.9190   20.2200 C   0  0  0  0  0  0  0  0  0  0  0  0
   29.3850   11.9780   20.7130 C   0  0  0  0  0  0  0  0  0  0  0  0
    0.0000    0.0000    0.0000 H   0  0  0  0  0  0  0  0  0  0  0  0
    0.0000    0.0000    0.0000 H   0  0  0  0  0  0  0  0  0  0  0  0
    0.0000    0.0000    0.0000 H   0  0  0  0  0  0  0  0  0  0  0  0
    0.0000    0.0000    0.0000 H   0  0  0  0  0  0  0  0  0  0  0  0
    0.0000    0.0000    0.0000 H   0  0  0  0  0  0  0  0  0  0  0  0
    0.0000    0.0000    0.0000 H   0  0  0  0  0  0  0  0  0  0  0  0
    0.0000    0.0000    0.0000 H   0  0  0  0  0  0  0  0  0  0  0  0
    0.0000    0.0000    0.0000 H   0  0  0  0  0  0  0  0  0  0  0  0
    0.0000    0.0000    0.0000 H   0  0  0  0  0  0  0  0  0  0  0  0
    0.0000    0.0000    0.0000 H   0  0  0  0  0  0  0  0  0  0  0  0
    0.0000    0.0000    0.0000 H   0  0  0  0  0  0  0  0  0  0  0  0
    0.0000    0.0000    0.0000 H   0  0  0  0  0  0  0  0  0  0  0  0
    0.0000    0.0000    0.0000 H   0  0  0  0  0  0  0  0  0  0  0  0
   10.8732    5.1925   10.4946 C   0  0  0  0  0  0  0  0  0  0  0  0
   10.7723    5.7326    9.3635 O   0  0  0  0  0  0  0  0  0  0  0  0
   10.0035    4.1143   10.8192 N   0  0  0  0  0  0  0  0  0  0  0  0
    9.0377    3.6884    9.8247 C   0  0  0  0  0  0  0  0  0  0  0  0
    8.0986    4.8086    9.4567 C   0  0  0  0  0  0  0  0  0  0  0  0
   10.0853    3.6619   11.7614 H   0  0  0  0  0  0  0  0  0  0  0  0
    9.6257    3.3200    8.9419 H   0  0  0  0  0  0  0  0  0  0  0  0
    8.5067    2.7986   10.2374 H   0  0  0  0  0  0  0  0  0  0  0  0
    8.3772    5.7300   10.0119 H   0  0  0  0  0  0  0  0  0  0  0  0
    7.0880    4.5141    9.7943 H   0  0  0  0  0  0  0  0  0  0  0  0
    8.1334    4.9385    8.3563 H   0  0  0  0  0  0  0  0  0  0  0  0
  1  3  2  0
  1  4  1  0
  2  4  1  0
  1  5  1  0
  2  6  1  0
  5  6  1  0
  6  7  2  3
  5  8  1  0
  4 10  1  0
 10 11  2  0
 11 12  1  0
 12 13  2  0
 13 14  1  0
 10 15  1  0
 14 15  2  0
  9 16  2  0
  9 17  1  0
 14 18  1  0
 17 18  2  0
 18 19  1  0
 16 20  1  0
 19 20  2  0
  2 21  1  0
  7 22  1  0
  8 23  1  0
  8 24  1  0
  8 25  1  0
 11 26  1  0
 12 27  1  0
 13 28  1  0
 15 29  1  0
 16 30  1  0
 17 31  1  0
 19 32  1  0
 20 33  1  0
 34 35  2  0
 34 36  1  0
 36 37  1  0
 37 38  1  0
 36 39  1  0
 37 40  1  0
 37 41  1  0
 38 42  1  0
 38 43  1  0
 38 44  1  0
  4 34  1  6
M  END
>  <attachment_point>  (145) 
21

>  <score>  (145) 
<NA>

$$$$
4djw
     RDKit          3D

 54 57  0  0  0  0  0  0  0  0999 V2000
   22.4950   11.8750   22.5810 C   0  0  0  0  0  0  0  0  0  0  0  0
   22.5380    9.4930   22.4640 N   0  0  0  0  0  0  0  0  0  0  0  0
   22.3600   13.0630   22.3480 O   0  0  0  0  0  0  0  0  0  0  0  0
   22.3390   10.6680   21.5610 C   0  0  2  0  0  0  0  0  0  0  0  0
   22.7860   11.3350   23.8120 N   0  0  0  0  0  0  0  0  0  0  0  0
   22.7800    9.9140   23.7010 C   0  0  0  0  0  0  0  0  0  0  0  0
   22.9970    9.1110   24.7490 N   0  0  0  0  0  0  0  0  0  0  0  0
   23.0220   12.1410   25.0180 C   0  0  0  0  0  0  0  0  0  0  0  0
   29.1260    9.8230   21.7090 N   0  0  0  0  0  0  0  0  0  0  0  0
   23.4880   10.6920   20.5300 C   0  0  0  0  0  0  0  0  0  0  0  0
   23.2110   10.7890   19.1730 C   0  0  0  0  0  0  0  0  0  0  0  0
   24.2350   10.8650   18.2430 C   0  0  0  0  0  0  0  0  0  0  0  0
   25.5500   10.8410   18.6560 C   0  0  0  0  0  0  0  0  0  0  0  0
   25.8710   10.7460   20.0070 C   0  0  0  0  0  0  0  0  0  0  0  0
   24.8260   10.6610   20.9430 C   0  0  0  0  0  0  0  0  0  0  0  0
   29.8540   10.9130   21.4510 C   0  0  0  0  0  0  0  0  0  0  0  0
   27.8830    9.7800   21.2080 C   0  0  0  0  0  0  0  0  0  0  0  0
   27.3000   10.8010   20.4650 C   0  0  0  0  0  0  0  0  0  0  0  0
   28.0930   11.9190   20.2200 C   0  0  0  0  0  0  0  0  0  0  0  0
   29.3850   11.9780   20.7130 C   0  0  0  0  0  0  0  0  0  0  0  0
    0.0000    0.0000    0.0000 H   0  0  0  0  0  0  0  0  0  0  0  0
    0.0000    0.0000    0.0000 H   0  0  0  0  0  0  0  0  0  0  0  0
    0.0000    0.0000    0.0000 H   0  0  0  0  0  0  0  0  0  0  0  0
    0.0000    0.0000    0.0000 H   0  0  0  0  0  0  0  0  0  0  0  0
    0.0000    0.0000    0.0000 H   0  0  0  0  0  0  0  0  0  0  0  0
    0.0000    0.0000    0.0000 H   0  0  0  0  0  0  0  0  0  0  0  0
    0.0000    0.0000    0.0000 H   0  0  0  0  0  0  0  0  0  0  0  0
    0.0000    0.0000    0.0000 H   0  0  0  0  0  0  0  0  0  0  0  0
    0.0000    0.0000    0.0000 H   0  0  0  0  0  0  0  0  0  0  0  0
    0.0000    0.0000    0.0000 H   0  0  0  0  0  0  0  0  0  0  0  0
    0.0000    0.0000    0.0000 H   0  0  0  0  0  0  0  0  0  0  0  0
    0.0000    0.0000    0.0000 H   0  0  0  0  0  0  0  0  0  0  0  0
    0.0000    0.0000    0.0000 H   0  0  0  0  0  0  0  0  0  0  0  0
   11.0178    5.2616   10.6341 O   0  0  0  0  0  0  0  0  0  0  0  0
    9.8583    4.4855   10.5361 C   0  0  0  0  0  0  0  0  0  0  0  0
    9.4038    4.4974    9.0966 C   0  0  0  0  0  0  0  0  0  0  0  0
   10.3915    3.9756    8.2716 N   0  0  0  0  0  0  0  0  0  0  0  0
   10.7394    2.6307    8.3196 C   0  0  0  0  0  0  0  0  0  0  0  0
   12.0448    2.2842    7.6590 C   0  0  0  0  0  0  0  0  0  0  0  0
   12.3040    3.0624    6.5312 O   0  0  0  0  0  0  0  0  0  0  0  0
   12.4047    4.3861    7.0105 C   0  0  0  0  0  0  0  0  0  0  0  0
   10.9535    4.8033    7.2742 C   0  0  0  0  0  0  0  0  0  0  0  0
   10.0798    3.4472   10.8435 H   0  0  0  0  0  0  0  0  0  0  0  0
    9.0552    4.8497   11.2115 H   0  0  0  0  0  0  0  0  0  0  0  0
    8.4413    3.9828    8.9544 H   0  0  0  0  0  0  0  0  0  0  0  0
    9.2473    5.5777    8.8347 H   0  0  0  0  0  0  0  0  0  0  0  0
    9.9521    2.0027    7.8526 H   0  0  0  0  0  0  0  0  0  0  0  0
   10.8356    2.2588    9.3815 H   0  0  0  0  0  0  0  0  0  0  0  0
   12.1081    1.2020    7.4157 H   0  0  0  0  0  0  0  0  0  0  0  0
   12.8883    2.4825    8.3625 H   0  0  0  0  0  0  0  0  0  0  0  0
   12.8821    4.3534    8.0220 H   0  0  0  0  0  0  0  0  0  0  0  0
   12.8872    5.0630    6.3082 H   0  0  0  0  0  0  0  0  0  0  0  0
   10.9168    5.8680    7.5660 H   0  0  0  0  0  0  0  0  0  0  0  0
   10.4035    4.6562    6.3178 H   0  0  0  0  0  0  0  0  0  0  0  0
  1  3  2  0
  1  4  1  0
  2  4  1  0
  1  5  1  0
  2  6  1  0
  5  6  1  0
  6  7  2  3
  5  8  1  0
  4 10  1  0
 10 11  2  0
 11 12  1  0
 12 13  2  0
 13 14  1  0
 10 15  1  0
 14 15  2  0
  9 16  2  0
  9 17  1  0
 14 18  1  0
 17 18  2  0
 18 19  1  0
 16 20  1  0
 19 20  2  0
  2 21  1  0
  7 22  1  0
  8 23  1  0
  8 24  1  0
  8 25  1  0
 11 26  1  0
 12 27  1  0
 13 28  1  0
 15 29  1  0
 16 30  1  0
 17 31  1  0
 19 32  1  0
 20 33  1  0
 34 35  1  0
 35 36  1  0
 36 37  1  0
 37 38  1  0
 38 39  1  0
 39 40  1  0
 40 41  1  0
 41 42  1  0
 42 37  1  0
 35 43  1  0
 35 44  1  0
 36 45  1  0
 36 46  1  0
 38 47  1  0
 38 48  1  0
 39 49  1  0
 39 50  1  0
 41 51  1  0
 41 52  1  0
 42 53  1  0
 42 54  1  0
  4 34  1  6
M  END
>  <attachment_point>  (146) 
21

>  <score>  (146) 
<NA>

$$$$
4djw
     RDKit          3D

 53 56  0  0  0  0  0  0  0  0999 V2000
   22.4950   11.8750   22.5810 C   0  0  0  0  0  0  0  0  0  0  0  0
   22.5380    9.4930   22.4640 N   0  0  0  0  0  0  0  0  0  0  0  0
   22.3600   13.0630   22.3480 O   0  0  0  0  0  0  0  0  0  0  0  0
   22.3390   10.6680   21.5610 C   0  0  2  0  0  0  0  0  0  0  0  0
   22.7860   11.3350   23.8120 N   0  0  0  0  0  0  0  0  0  0  0  0
   22.7800    9.9140   23.7010 C   0  0  0  0  0  0  0  0  0  0  0  0
   22.9970    9.1110   24.7490 N   0  0  0  0  0  0  0  0  0  0  0  0
   23.0220   12.1410   25.0180 C   0  0  0  0  0  0  0  0  0  0  0  0
   29.1260    9.8230   21.7090 N   0  0  0  0  0  0  0  0  0  0  0  0
   23.4880   10.6920   20.5300 C   0  0  0  0  0  0  0  0  0  0  0  0
   23.2110   10.7890   19.1730 C   0  0  0  0  0  0  0  0  0  0  0  0
   24.2350   10.8650   18.2430 C   0  0  0  0  0  0  0  0  0  0  0  0
   25.5500   10.8410   18.6560 C   0  0  0  0  0  0  0  0  0  0  0  0
   25.8710   10.7460   20.0070 C   0  0  0  0  0  0  0  0  0  0  0  0
   24.8260   10.6610   20.9430 C   0  0  0  0  0  0  0  0  0  0  0  0
   29.8540   10.9130   21.4510 C   0  0  0  0  0  0  0  0  0  0  0  0
   27.8830    9.7800   21.2080 C   0  0  0  0  0  0  0  0  0  0  0  0
   27.3000   10.8010   20.4650 C   0  0  0  0  0  0  0  0  0  0  0  0
   28.0930   11.9190   20.2200 C   0  0  0  0  0  0  0  0  0  0  0  0
   29.3850   11.9780   20.7130 C   0  0  0  0  0  0  0  0  0  0  0  0
    0.0000    0.0000    0.0000 H   0  0  0  0  0  0  0  0  0  0  0  0
    0.0000    0.0000    0.0000 H   0  0  0  0  0  0  0  0  0  0  0  0
    0.0000    0.0000    0.0000 H   0  0  0  0  0  0  0  0  0  0  0  0
    0.0000    0.0000    0.0000 H   0  0  0  0  0  0  0  0  0  0  0  0
    0.0000    0.0000    0.0000 H   0  0  0  0  0  0  0  0  0  0  0  0
    0.0000    0.0000    0.0000 H   0  0  0  0  0  0  0  0  0  0  0  0
    0.0000    0.0000    0.0000 H   0  0  0  0  0  0  0  0  0  0  0  0
    0.0000    0.0000    0.0000 H   0  0  0  0  0  0  0  0  0  0  0  0
    0.0000    0.0000    0.0000 H   0  0  0  0  0  0  0  0  0  0  0  0
    0.0000    0.0000    0.0000 H   0  0  0  0  0  0  0  0  0  0  0  0
    0.0000    0.0000    0.0000 H   0  0  0  0  0  0  0  0  0  0  0  0
    0.0000    0.0000    0.0000 H   0  0  0  0  0  0  0  0  0  0  0  0
    0.0000    0.0000    0.0000 H   0  0  0  0  0  0  0  0  0  0  0  0
   10.8984    5.2045   10.5188 C   0  0  0  0  0  0  0  0  0  0  0  0
   10.6189    6.0187    9.3154 C   0  0  0  0  0  0  0  0  0  0  0  0
   11.7320    6.2722    8.4773 N   0  0  0  0  0  0  0  0  0  0  0  0
   11.3469    7.2248    7.4874 C   0  0  0  0  0  0  0  0  0  0  0  0
   12.4577    7.7270    6.6175 C   0  0  0  0  0  0  0  0  0  0  0  0
   13.7275    7.5129    7.1540 O   0  0  0  0  0  0  0  0  0  0  0  0
   13.6570    7.6505    8.5231 C   0  0  0  0  0  0  0  0  0  0  0  0
   13.0009    6.3748    9.0562 C   0  0  0  0  0  0  0  0  0  0  0  0
   11.1450    4.1477   10.2213 H   0  0  0  0  0  0  0  0  0  0  0  0
    9.9316    5.0944   11.1121 H   0  0  0  0  0  0  0  0  0  0  0  0
    9.8500    5.4753    8.6705 H   0  0  0  0  0  0  0  0  0  0  0  0
   10.0884    6.9556    9.5986 H   0  0  0  0  0  0  0  0  0  0  0  0
   10.7995    8.0775    7.9666 H   0  0  0  0  0  0  0  0  0  0  0  0
   10.5948    6.6873    6.8289 H   0  0  0  0  0  0  0  0  0  0  0  0
   12.3520    8.8173    6.4513 H   0  0  0  0  0  0  0  0  0  0  0  0
   12.4049    7.1527    5.6535 H   0  0  0  0  0  0  0  0  0  0  0  0
   12.9742    8.4807    8.8062 H   0  0  0  0  0  0  0  0  0  0  0  0
   14.6590    7.7935    8.9482 H   0  0  0  0  0  0  0  0  0  0  0  0
   13.6471    5.5453    8.6412 H   0  0  0  0  0  0  0  0  0  0  0  0
   13.0759    6.3149   10.1523 H   0  0  0  0  0  0  0  0  0  0  0  0
  1  3  2  0
  1  4  1  0
  2  4  1  0
  1  5  1  0
  2  6  1  0
  5  6  1  0
  6  7  2  3
  5  8  1  0
  4 10  1  0
 10 11  2  0
 11 12  1  0
 12 13  2  0
 13 14  1  0
 10 15  1  0
 14 15  2  0
  9 16  2  0
  9 17  1  0
 14 18  1  0
 17 18  2  0
 18 19  1  0
 16 20  1  0
 19 20  2  0
  2 21  1  0
  7 22  1  0
  8 23  1  0
  8 24  1  0
  8 25  1  0
 11 26  1  0
 12 27  1  0
 13 28  1  0
 15 29  1  0
 16 30  1  0
 17 31  1  0
 19 32  1  0
 20 33  1  0
 34 35  1  0
 35 36  1  0
 36 37  1  0
 37 38  1  0
 38 39  1  0
 39 40  1  0
 40 41  1  0
 41 36  1  0
 34 42  1  0
 34 43  1  0
 35 44  1  0
 35 45  1  0
 37 46  1  0
 37 47  1  0
 38 48  1  0
 38 49  1  0
 40 50  1  0
 40 51  1  0
 41 52  1  0
 41 53  1  0
  4 34  1  6
M  END
>  <attachment_point>  (147) 
21

>  <score>  (147) 
<NA>

$$$$
4djw
     RDKit          3D

 48 52  0  0  0  0  0  0  0  0999 V2000
   22.4950   11.8750   22.5810 C   0  0  0  0  0  0  0  0  0  0  0  0
   22.5380    9.4930   22.4640 N   0  0  0  0  0  0  0  0  0  0  0  0
   22.3600   13.0630   22.3480 O   0  0  0  0  0  0  0  0  0  0  0  0
   22.3390   10.6680   21.5610 C   0  0  2  0  0  0  0  0  0  0  0  0
   22.7860   11.3350   23.8120 N   0  0  0  0  0  0  0  0  0  0  0  0
   22.7800    9.9140   23.7010 C   0  0  0  0  0  0  0  0  0  0  0  0
   22.9970    9.1110   24.7490 N   0  0  0  0  0  0  0  0  0  0  0  0
   23.0220   12.1410   25.0180 C   0  0  0  0  0  0  0  0  0  0  0  0
   29.1260    9.8230   21.7090 N   0  0  0  0  0  0  0  0  0  0  0  0
   23.4880   10.6920   20.5300 C   0  0  0  0  0  0  0  0  0  0  0  0
   23.2110   10.7890   19.1730 C   0  0  0  0  0  0  0  0  0  0  0  0
   24.2350   10.8650   18.2430 C   0  0  0  0  0  0  0  0  0  0  0  0
   25.5500   10.8410   18.6560 C   0  0  0  0  0  0  0  0  0  0  0  0
   25.8710   10.7460   20.0070 C   0  0  0  0  0  0  0  0  0  0  0  0
   24.8260   10.6610   20.9430 C   0  0  0  0  0  0  0  0  0  0  0  0
   29.8540   10.9130   21.4510 C   0  0  0  0  0  0  0  0  0  0  0  0
   27.8830    9.7800   21.2080 C   0  0  0  0  0  0  0  0  0  0  0  0
   27.3000   10.8010   20.4650 C   0  0  0  0  0  0  0  0  0  0  0  0
   28.0930   11.9190   20.2200 C   0  0  0  0  0  0  0  0  0  0  0  0
   29.3850   11.9780   20.7130 C   0  0  0  0  0  0  0  0  0  0  0  0
    0.0000    0.0000    0.0000 H   0  0  0  0  0  0  0  0  0  0  0  0
    0.0000    0.0000    0.0000 H   0  0  0  0  0  0  0  0  0  0  0  0
    0.0000    0.0000    0.0000 H   0  0  0  0  0  0  0  0  0  0  0  0
    0.0000    0.0000    0.0000 H   0  0  0  0  0  0  0  0  0  0  0  0
    0.0000    0.0000    0.0000 H   0  0  0  0  0  0  0  0  0  0  0  0
    0.0000    0.0000    0.0000 H   0  0  0  0  0  0  0  0  0  0  0  0
    0.0000    0.0000    0.0000 H   0  0  0  0  0  0  0  0  0  0  0  0
    0.0000    0.0000    0.0000 H   0  0  0  0  0  0  0  0  0  0  0  0
    0.0000    0.0000    0.0000 H   0  0  0  0  0  0  0  0  0  0  0  0
    0.0000    0.0000    0.0000 H   0  0  0  0  0  0  0  0  0  0  0  0
    0.0000    0.0000    0.0000 H   0  0  0  0  0  0  0  0  0  0  0  0
    0.0000    0.0000    0.0000 H   0  0  0  0  0  0  0  0  0  0  0  0
    0.0000    0.0000    0.0000 H   0  0  0  0  0  0  0  0  0  0  0  0
   10.8825    5.1970   10.5035 C   0  0  0  0  0  0  0  0  0  0  0  0
   11.0479    4.1017    9.6791 C   0  0  0  0  0  0  0  0  0  0  0  0
    9.9164    4.0015    8.9559 N   0  0  0  0  0  0  0  0  0  0  0  0
    9.0548    4.9965    9.3029 C   0  0  0  0  0  0  0  0  0  0  0  0
    7.7921    5.3660    8.8993 C   0  0  0  0  0  0  0  0  0  0  0  0
    7.1309    6.4535    9.4372 C   0  0  0  0  0  0  0  0  0  0  0  0
    7.7313    7.2218   10.4203 C   0  0  0  0  0  0  0  0  0  0  0  0
    8.9915    6.8632   10.8318 C   0  0  0  0  0  0  0  0  0  0  0  0
    9.6455    5.7761   10.2901 C   0  0  0  0  0  0  0  0  0  0  0  0
   11.9251    3.4458    9.6249 H   0  0  0  0  0  0  0  0  0  0  0  0
    9.7328    3.2748    8.2430 H   0  0  0  0  0  0  0  0  0  0  0  0
    7.3073    4.7614    8.1188 H   0  0  0  0  0  0  0  0  0  0  0  0
    6.1281    6.6921    9.0706 H   0  0  0  0  0  0  0  0  0  0  0  0
    7.1820    8.0682   10.8194 H   0  0  0  0  0  0  0  0  0  0  0  0
    9.4595    7.4616   11.5975 H   0  0  0  0  0  0  0  0  0  0  0  0
  1  3  2  0
  1  4  1  0
  2  4  1  0
  1  5  1  0
  2  6  1  0
  5  6  1  0
  6  7  2  3
  5  8  1  0
  4 10  1  6
 10 11  2  0
 11 12  1  0
 12 13  2  0
 13 14  1  0
 10 15  1  0
 14 15  2  0
  9 16  2  0
  9 17  1  0
 14 18  1  0
 17 18  2  0
 18 19  1  0
 16 20  1  0
 19 20  2  0
  2 21  1  0
  7 22  1  0
  8 23  1  0
  8 24  1  0
  8 25  1  0
 11 26  1  0
 12 27  1  0
 13 28  1  0
 15 29  1  0
 16 30  1  0
 17 31  1  0
 19 32  1  0
 20 33  1  0
 34 35  2  0
 35 36  1  0
 36 37  1  0
 37 38  2  0
 38 39  1  0
 39 40  2  0
 40 41  1  0
 41 42  2  0
 42 34  1  0
 42 37  1  0
 35 43  1  0
 36 44  1  0
 38 45  1  0
 39 46  1  0
 40 47  1  0
 41 48  1  0
  4 34  1  0
M  END
>  <attachment_point>  (148) 
21

>  <score>  (148) 
<NA>

$$$$
4djw
     RDKit          3D

 49 53  0  0  0  0  0  0  0  0999 V2000
   22.4950   11.8750   22.5810 C   0  0  0  0  0  0  0  0  0  0  0  0
   22.5380    9.4930   22.4640 N   0  0  0  0  0  0  0  0  0  0  0  0
   22.3600   13.0630   22.3480 O   0  0  0  0  0  0  0  0  0  0  0  0
   22.3390   10.6680   21.5610 C   0  0  2  0  0  0  0  0  0  0  0  0
   22.7860   11.3350   23.8120 N   0  0  0  0  0  0  0  0  0  0  0  0
   22.7800    9.9140   23.7010 C   0  0  0  0  0  0  0  0  0  0  0  0
   22.9970    9.1110   24.7490 N   0  0  0  0  0  0  0  0  0  0  0  0
   23.0220   12.1410   25.0180 C   0  0  0  0  0  0  0  0  0  0  0  0
   29.1260    9.8230   21.7090 N   0  0  0  0  0  0  0  0  0  0  0  0
   23.4880   10.6920   20.5300 C   0  0  0  0  0  0  0  0  0  0  0  0
   23.2110   10.7890   19.1730 C   0  0  0  0  0  0  0  0  0  0  0  0
   24.2350   10.8650   18.2430 C   0  0  0  0  0  0  0  0  0  0  0  0
   25.5500   10.8410   18.6560 C   0  0  0  0  0  0  0  0  0  0  0  0
   25.8710   10.7460   20.0070 C   0  0  0  0  0  0  0  0  0  0  0  0
   24.8260   10.6610   20.9430 C   0  0  0  0  0  0  0  0  0  0  0  0
   29.8540   10.9130   21.4510 C   0  0  0  0  0  0  0  0  0  0  0  0
   27.8830    9.7800   21.2080 C   0  0  0  0  0  0  0  0  0  0  0  0
   27.3000   10.8010   20.4650 C   0  0  0  0  0  0  0  0  0  0  0  0
   28.0930   11.9190   20.2200 C   0  0  0  0  0  0  0  0  0  0  0  0
   29.3850   11.9780   20.7130 C   0  0  0  0  0  0  0  0  0  0  0  0
    0.0000    0.0000    0.0000 H   0  0  0  0  0  0  0  0  0  0  0  0
    0.0000    0.0000    0.0000 H   0  0  0  0  0  0  0  0  0  0  0  0
    0.0000    0.0000    0.0000 H   0  0  0  0  0  0  0  0  0  0  0  0
    0.0000    0.0000    0.0000 H   0  0  0  0  0  0  0  0  0  0  0  0
    0.0000    0.0000    0.0000 H   0  0  0  0  0  0  0  0  0  0  0  0
    0.0000    0.0000    0.0000 H   0  0  0  0  0  0  0  0  0  0  0  0
    0.0000    0.0000    0.0000 H   0  0  0  0  0  0  0  0  0  0  0  0
    0.0000    0.0000    0.0000 H   0  0  0  0  0  0  0  0  0  0  0  0
    0.0000    0.0000    0.0000 H   0  0  0  0  0  0  0  0  0  0  0  0
    0.0000    0.0000    0.0000 H   0  0  0  0  0  0  0  0  0  0  0  0
    0.0000    0.0000    0.0000 H   0  0  0  0  0  0  0  0  0  0  0  0
    0.0000    0.0000    0.0000 H   0  0  0  0  0  0  0  0  0  0  0  0
    0.0000    0.0000    0.0000 H   0  0  0  0  0  0  0  0  0  0  0  0
   10.8775    5.1945   10.4986 C   0  0  0  0  0  0  0  0  0  0  0  0
    9.9817    6.0325    9.8668 C   0  0  0  0  0  0  0  0  0  0  0  0
    9.0725    5.5757    8.9852 N   0  0  0  0  0  0  0  0  0  0  0  0
    9.0174    4.2591    8.6949 C   0  0  0  0  0  0  0  0  0  0  0  0
    8.0609    3.8333    7.7775 C   0  0  0  0  0  0  0  0  0  0  0  0
    7.9723    2.4958    7.4539 C   0  0  0  0  0  0  0  0  0  0  0  0
    8.8508    1.6269    8.0649 C   0  0  0  0  0  0  0  0  0  0  0  0
    9.8067    2.0406    8.9795 C   0  0  0  0  0  0  0  0  0  0  0  0
    9.8915    3.3817    9.3005 C   0  0  0  0  0  0  0  0  0  0  0  0
   10.8261    3.8474   10.2059 C   0  0  0  0  0  0  0  0  0  0  0  0
   10.0281    7.0980   10.1033 H   0  0  0  0  0  0  0  0  0  0  0  0
    7.3697    4.5129    7.2961 H   0  0  0  0  0  0  0  0  0  0  0  0
    7.2382    2.1367    6.7439 H   0  0  0  0  0  0  0  0  0  0  0  0
    8.7860    0.5722    7.8143 H   0  0  0  0  0  0  0  0  0  0  0  0
   10.4963    1.3736    9.4619 H   0  0  0  0  0  0  0  0  0  0  0  0
   11.5215    3.1464   10.6872 H   0  0  0  0  0  0  0  0  0  0  0  0
  1  3  2  0
  1  4  1  0
  2  4  1  0
  1  5  1  0
  2  6  1  0
  5  6  1  0
  6  7  2  3
  5  8  1  0
  4 10  1  6
 10 11  2  0
 11 12  1  0
 12 13  2  0
 13 14  1  0
 10 15  1  0
 14 15  2  0
  9 16  2  0
  9 17  1  0
 14 18  1  0
 17 18  2  0
 18 19  1  0
 16 20  1  0
 19 20  2  0
  2 21  1  0
  7 22  1  0
  8 23  1  0
  8 24  1  0
  8 25  1  0
 11 26  1  0
 12 27  1  0
 13 28  1  0
 15 29  1  0
 16 30  1  0
 17 31  1  0
 19 32  1  0
 20 33  1  0
 34 35  2  0
 35 36  1  0
 36 37  2  0
 37 38  1  0
 38 39  2  0
 39 40  1  0
 40 41  2  0
 41 42  1  0
 42 43  2  0
 43 34  1  0
 42 37  1  0
 35 44  1  0
 38 45  1  0
 39 46  1  0
 40 47  1  0
 41 48  1  0
 43 49  1  0
  4 34  1  0
M  END
>  <attachment_point>  (149) 
21

>  <score>  (149) 
<NA>

$$$$
4djw
     RDKit          3D

 52 54  0  0  0  0  0  0  0  0999 V2000
   22.4950   11.8750   22.5810 C   0  0  0  0  0  0  0  0  0  0  0  0
   22.5380    9.4930   22.4640 N   0  0  0  0  0  0  0  0  0  0  0  0
   22.3600   13.0630   22.3480 O   0  0  0  0  0  0  0  0  0  0  0  0
   22.3390   10.6680   21.5610 C   0  0  2  0  0  0  0  0  0  0  0  0
   22.7860   11.3350   23.8120 N   0  0  0  0  0  0  0  0  0  0  0  0
   22.7800    9.9140   23.7010 C   0  0  0  0  0  0  0  0  0  0  0  0
   22.9970    9.1110   24.7490 N   0  0  0  0  0  0  0  0  0  0  0  0
   23.0220   12.1410   25.0180 C   0  0  0  0  0  0  0  0  0  0  0  0
   29.1260    9.8230   21.7090 N   0  0  0  0  0  0  0  0  0  0  0  0
   23.4880   10.6920   20.5300 C   0  0  0  0  0  0  0  0  0  0  0  0
   23.2110   10.7890   19.1730 C   0  0  0  0  0  0  0  0  0  0  0  0
   24.2350   10.8650   18.2430 C   0  0  0  0  0  0  0  0  0  0  0  0
   25.5500   10.8410   18.6560 C   0  0  0  0  0  0  0  0  0  0  0  0
   25.8710   10.7460   20.0070 C   0  0  0  0  0  0  0  0  0  0  0  0
   24.8260   10.6610   20.9430 C   0  0  0  0  0  0  0  0  0  0  0  0
   29.8540   10.9130   21.4510 C   0  0  0  0  0  0  0  0  0  0  0  0
   27.8830    9.7800   21.2080 C   0  0  0  0  0  0  0  0  0  0  0  0
   27.3000   10.8010   20.4650 C   0  0  0  0  0  0  0  0  0  0  0  0
   28.0930   11.9190   20.2200 C   0  0  0  0  0  0  0  0  0  0  0  0
   29.3850   11.9780   20.7130 C   0  0  0  0  0  0  0  0  0  0  0  0
    0.0000    0.0000    0.0000 H   0  0  0  0  0  0  0  0  0  0  0  0
    0.0000    0.0000    0.0000 H   0  0  0  0  0  0  0  0  0  0  0  0
    0.0000    0.0000    0.0000 H   0  0  0  0  0  0  0  0  0  0  0  0
    0.0000    0.0000    0.0000 H   0  0  0  0  0  0  0  0  0  0  0  0
    0.0000    0.0000    0.0000 H   0  0  0  0  0  0  0  0  0  0  0  0
    0.0000    0.0000    0.0000 H   0  0  0  0  0  0  0  0  0  0  0  0
    0.0000    0.0000    0.0000 H   0  0  0  0  0  0  0  0  0  0  0  0
    0.0000    0.0000    0.0000 H   0  0  0  0  0  0  0  0  0  0  0  0
    0.0000    0.0000    0.0000 H   0  0  0  0  0  0  0  0  0  0  0  0
    0.0000    0.0000    0.0000 H   0  0  0  0  0  0  0  0  0  0  0  0
    0.0000    0.0000    0.0000 H   0  0  0  0  0  0  0  0  0  0  0  0
    0.0000    0.0000    0.0000 H   0  0  0  0  0  0  0  0  0  0  0  0
    0.0000    0.0000    0.0000 H   0  0  0  0  0  0  0  0  0  0  0  0
   10.8981    5.2044   10.5185 O   0  0  0  0  0  0  0  0  0  0  0  0
   10.7765    3.8029   10.6798 C   0  0  0  0  0  0  0  0  0  0  0  0
    9.7504    3.2609    9.6997 C   0  0  0  0  0  0  0  0  0  0  0  0
   10.1524    3.5426    8.2726 C   0  0  0  0  0  0  0  0  0  0  0  0
   11.4210    2.9408    7.9362 N   0  0  0  0  0  0  0  0  0  0  0  0
   11.7920    3.2193    6.5678 C   0  0  0  0  0  0  0  0  0  0  0  0
   11.4001    1.4992    8.0810 C   0  0  0  0  0  0  0  0  0  0  0  0
   10.4746    3.5702   11.7176 H   0  0  0  0  0  0  0  0  0  0  0  0
   11.7689    3.3894   10.4118 H   0  0  0  0  0  0  0  0  0  0  0  0
    8.7791    3.8001    9.8625 H   0  0  0  0  0  0  0  0  0  0  0  0
    9.5549    2.1969    9.8797 H   0  0  0  0  0  0  0  0  0  0  0  0
   10.2904    4.6445    8.1941 H   0  0  0  0  0  0  0  0  0  0  0  0
    9.3250    3.1716    7.6269 H   0  0  0  0  0  0  0  0  0  0  0  0
   12.5459    4.0375    6.5515 H   0  0  0  0  0  0  0  0  0  0  0  0
   10.9170    3.5164    5.9506 H   0  0  0  0  0  0  0  0  0  0  0  0
   12.2353    2.3366    6.0618 H   0  0  0  0  0  0  0  0  0  0  0  0
   12.4428    1.1514    7.8667 H   0  0  0  0  0  0  0  0  0  0  0  0
   11.1243    1.1552    9.0762 H   0  0  0  0  0  0  0  0  0  0  0  0
   10.7764    1.0180    7.2726 H   0  0  0  0  0  0  0  0  0  0  0  0
  1  3  2  0
  1  4  1  0
  2  4  1  0
  1  5  1  0
  2  6  1  0
  5  6  1  0
  6  7  2  3
  5  8  1  0
  4 10  1  0
 10 11  2  0
 11 12  1  0
 12 13  2  0
 13 14  1  0
 10 15  1  0
 14 15  2  0
  9 16  2  0
  9 17  1  0
 14 18  1  0
 17 18  2  0
 18 19  1  0
 16 20  1  0
 19 20  2  0
  2 21  1  0
  7 22  1  0
  8 23  1  0
  8 24  1  0
  8 25  1  0
 11 26  1  0
 12 27  1  0
 13 28  1  0
 15 29  1  0
 16 30  1  0
 17 31  1  0
 19 32  1  0
 20 33  1  0
 34 35  1  0
 35 36  1  0
 36 37  1  0
 37 38  1  0
 38 39  1  0
 38 40  1  0
 35 41  1  0
 35 42  1  0
 36 43  1  0
 36 44  1  0
 37 45  1  0
 37 46  1  0
 39 47  1  0
 39 48  1  0
 39 49  1  0
 40 50  1  0
 40 51  1  0
 40 52  1  0
  4 34  1  6
M  END
>  <attachment_point>  (150) 
21

>  <score>  (150) 
<NA>

$$$$
4djw
     RDKit          3D

 46 49  0  0  0  0  0  0  0  0999 V2000
   22.4950   11.8750   22.5810 C   0  0  0  0  0  0  0  0  0  0  0  0
   22.5380    9.4930   22.4640 N   0  0  0  0  0  0  0  0  0  0  0  0
   22.3600   13.0630   22.3480 O   0  0  0  0  0  0  0  0  0  0  0  0
   22.3390   10.6680   21.5610 C   0  0  2  0  0  0  0  0  0  0  0  0
   22.7860   11.3350   23.8120 N   0  0  0  0  0  0  0  0  0  0  0  0
   22.7800    9.9140   23.7010 C   0  0  0  0  0  0  0  0  0  0  0  0
   22.9970    9.1110   24.7490 N   0  0  0  0  0  0  0  0  0  0  0  0
   23.0220   12.1410   25.0180 C   0  0  0  0  0  0  0  0  0  0  0  0
   29.1260    9.8230   21.7090 N   0  0  0  0  0  0  0  0  0  0  0  0
   23.4880   10.6920   20.5300 C   0  0  0  0  0  0  0  0  0  0  0  0
   23.2110   10.7890   19.1730 C   0  0  0  0  0  0  0  0  0  0  0  0
   24.2350   10.8650   18.2430 C   0  0  0  0  0  0  0  0  0  0  0  0
   25.5500   10.8410   18.6560 C   0  0  0  0  0  0  0  0  0  0  0  0
   25.8710   10.7460   20.0070 C   0  0  0  0  0  0  0  0  0  0  0  0
   24.8260   10.6610   20.9430 C   0  0  0  0  0  0  0  0  0  0  0  0
   29.8540   10.9130   21.4510 C   0  0  0  0  0  0  0  0  0  0  0  0
   27.8830    9.7800   21.2080 C   0  0  0  0  0  0  0  0  0  0  0  0
   27.3000   10.8010   20.4650 C   0  0  0  0  0  0  0  0  0  0  0  0
   28.0930   11.9190   20.2200 C   0  0  0  0  0  0  0  0  0  0  0  0
   29.3850   11.9780   20.7130 C   0  0  0  0  0  0  0  0  0  0  0  0
    0.0000    0.0000    0.0000 H   0  0  0  0  0  0  0  0  0  0  0  0
    0.0000    0.0000    0.0000 H   0  0  0  0  0  0  0  0  0  0  0  0
    0.0000    0.0000    0.0000 H   0  0  0  0  0  0  0  0  0  0  0  0
    0.0000    0.0000    0.0000 H   0  0  0  0  0  0  0  0  0  0  0  0
    0.0000    0.0000    0.0000 H   0  0  0  0  0  0  0  0  0  0  0  0
    0.0000    0.0000    0.0000 H   0  0  0  0  0  0  0  0  0  0  0  0
    0.0000    0.0000    0.0000 H   0  0  0  0  0  0  0  0  0  0  0  0
    0.0000    0.0000    0.0000 H   0  0  0  0  0  0  0  0  0  0  0  0
    0.0000    0.0000    0.0000 H   0  0  0  0  0  0  0  0  0  0  0  0
    0.0000    0.0000    0.0000 H   0  0  0  0  0  0  0  0  0  0  0  0
    0.0000    0.0000    0.0000 H   0  0  0  0  0  0  0  0  0  0  0  0
    0.0000    0.0000    0.0000 H   0  0  0  0  0  0  0  0  0  0  0  0
    0.0000    0.0000    0.0000 H   0  0  0  0  0  0  0  0  0  0  0  0
   10.8736    5.1927   10.4949 C   0  0  0  0  0  0  0  0  0  0  0  0
   10.2697    3.9920   11.1319 C   0  0  0  0  0  0  0  0  0  0  0  0
    9.1631    4.0709   11.9509 C   0  0  0  0  0  0  0  0  0  0  0  0
    8.6529    2.9030   12.5127 C   0  0  0  0  0  0  0  0  0  0  0  0
    9.2162    1.6643   12.2792 C   0  0  0  0  0  0  0  0  0  0  0  0
   10.2945    1.6320   11.4743 N   0  0  0  0  0  0  0  0  0  0  0  0
   10.8181    2.7484   10.9103 C   0  0  0  0  0  0  0  0  0  0  0  0
   10.1196    5.9989   10.4003 H   0  0  0  0  0  0  0  0  0  0  0  0
   11.4090    4.9671    9.5730 H   0  0  0  0  0  0  0  0  0  0  0  0
    8.7297    5.0410   12.1281 H   0  0  0  0  0  0  0  0  0  0  0  0
    7.7905    2.9881   13.1472 H   0  0  0  0  0  0  0  0  0  0  0  0
    8.8072    0.7594   12.7247 H   0  0  0  0  0  0  0  0  0  0  0  0
   11.6956    2.7078   10.2576 H   0  0  0  0  0  0  0  0  0  0  0  0
  1  3  2  0
  1  4  1  0
  2  4  1  0
  1  5  1  0
  2  6  1  0
  5  6  1  0
  6  7  2  3
  5  8  1  0
  4 10  1  0
 10 11  2  0
 11 12  1  0
 12 13  2  0
 13 14  1  0
 10 15  1  0
 14 15  2  0
  9 16  2  0
  9 17  1  0
 14 18  1  0
 17 18  2  0
 18 19  1  0
 16 20  1  0
 19 20  2  0
  2 21  1  0
  7 22  1  0
  8 23  1  0
  8 24  1  0
  8 25  1  0
 11 26  1  0
 12 27  1  0
 13 28  1  0
 15 29  1  0
 16 30  1  0
 17 31  1  0
 19 32  1  0
 20 33  1  0
 34 35  1  0
 35 36  2  0
 36 37  1  0
 37 38  2  0
 38 39  1  0
 39 40  2  0
 40 35  1  0
 34 41  1  0
 34 42  1  0
 36 43  1  0
 37 44  1  0
 38 45  1  0
 40 46  1  0
  4 34  1  6
M  END
>  <attachment_point>  (151) 
21

>  <score>  (151) 
<NA>

$$$$
4djw
     RDKit          3D

 45 48  0  0  0  0  0  0  0  0999 V2000
   22.4950   11.8750   22.5810 C   0  0  0  0  0  0  0  0  0  0  0  0
   22.5380    9.4930   22.4640 N   0  0  0  0  0  0  0  0  0  0  0  0
   22.3600   13.0630   22.3480 O   0  0  0  0  0  0  0  0  0  0  0  0
   22.3390   10.6680   21.5610 C   0  0  2  0  0  0  0  0  0  0  0  0
   22.7860   11.3350   23.8120 N   0  0  0  0  0  0  0  0  0  0  0  0
   22.7800    9.9140   23.7010 C   0  0  0  0  0  0  0  0  0  0  0  0
   22.9970    9.1110   24.7490 N   0  0  0  0  0  0  0  0  0  0  0  0
   23.0220   12.1410   25.0180 C   0  0  0  0  0  0  0  0  0  0  0  0
   29.1260    9.8230   21.7090 N   0  0  0  0  0  0  0  0  0  0  0  0
   23.4880   10.6920   20.5300 C   0  0  0  0  0  0  0  0  0  0  0  0
   23.2110   10.7890   19.1730 C   0  0  0  0  0  0  0  0  0  0  0  0
   24.2350   10.8650   18.2430 C   0  0  0  0  0  0  0  0  0  0  0  0
   25.5500   10.8410   18.6560 C   0  0  0  0  0  0  0  0  0  0  0  0
   25.8710   10.7460   20.0070 C   0  0  0  0  0  0  0  0  0  0  0  0
   24.8260   10.6610   20.9430 C   0  0  0  0  0  0  0  0  0  0  0  0
   29.8540   10.9130   21.4510 C   0  0  0  0  0  0  0  0  0  0  0  0
   27.8830    9.7800   21.2080 C   0  0  0  0  0  0  0  0  0  0  0  0
   27.3000   10.8010   20.4650 C   0  0  0  0  0  0  0  0  0  0  0  0
   28.0930   11.9190   20.2200 C   0  0  0  0  0  0  0  0  0  0  0  0
   29.3850   11.9780   20.7130 C   0  0  0  0  0  0  0  0  0  0  0  0
    0.0000    0.0000    0.0000 H   0  0  0  0  0  0  0  0  0  0  0  0
    0.0000    0.0000    0.0000 H   0  0  0  0  0  0  0  0  0  0  0  0
    0.0000    0.0000    0.0000 H   0  0  0  0  0  0  0  0  0  0  0  0
    0.0000    0.0000    0.0000 H   0  0  0  0  0  0  0  0  0  0  0  0
    0.0000    0.0000    0.0000 H   0  0  0  0  0  0  0  0  0  0  0  0
    0.0000    0.0000    0.0000 H   0  0  0  0  0  0  0  0  0  0  0  0
    0.0000    0.0000    0.0000 H   0  0  0  0  0  0  0  0  0  0  0  0
    0.0000    0.0000    0.0000 H   0  0  0  0  0  0  0  0  0  0  0  0
    0.0000    0.0000    0.0000 H   0  0  0  0  0  0  0  0  0  0  0  0
    0.0000    0.0000    0.0000 H   0  0  0  0  0  0  0  0  0  0  0  0
    0.0000    0.0000    0.0000 H   0  0  0  0  0  0  0  0  0  0  0  0
    0.0000    0.0000    0.0000 H   0  0  0  0  0  0  0  0  0  0  0  0
    0.0000    0.0000    0.0000 H   0  0  0  0  0  0  0  0  0  0  0  0
   10.8938    5.2023   10.5144 C   0  0  0  0  0  0  0  0  0  0  0  0
    9.5571    5.5450   10.6092 C   0  0  0  0  0  0  0  0  0  0  0  0
    8.6600    5.0630    9.6676 C   0  0  0  0  0  0  0  0  0  0  0  0
    9.0510    4.2450    8.6266 C   0  0  0  0  0  0  0  0  0  0  0  0
   10.3951    3.9082    8.5421 C   0  0  0  0  0  0  0  0  0  0  0  0
   11.3171    4.3788    9.4749 C   0  0  0  0  0  0  0  0  0  0  0  0
   12.6371    4.0000    9.3241 O   0  0  0  0  0  0  0  0  0  0  0  0
    9.2017    6.1708   11.3893 H   0  0  0  0  0  0  0  0  0  0  0  0
    7.6110    5.3425    9.7570 H   0  0  0  0  0  0  0  0  0  0  0  0
    8.3690    3.8581    7.8819 H   0  0  0  0  0  0  0  0  0  0  0  0
   10.7556    3.2652    7.7393 H   0  0  0  0  0  0  0  0  0  0  0  0
   12.9362    3.0334    9.2454 H   0  0  0  0  0  0  0  0  0  0  0  0
  1  3  2  0
  1  4  1  0
  2  4  1  0
  1  5  1  0
  2  6  1  0
  5  6  1  0
  6  7  2  3
  5  8  1  0
  4 10  1  6
 10 11  2  0
 11 12  1  0
 12 13  2  0
 13 14  1  0
 10 15  1  0
 14 15  2  0
  9 16  2  0
  9 17  1  0
 14 18  1  0
 17 18  2  0
 18 19  1  0
 16 20  1  0
 19 20  2  0
  2 21  1  0
  7 22  1  0
  8 23  1  0
  8 24  1  0
  8 25  1  0
 11 26  1  0
 12 27  1  0
 13 28  1  0
 15 29  1  0
 16 30  1  0
 17 31  1  0
 19 32  1  0
 20 33  1  0
 34 35  2  0
 35 36  1  0
 36 37  2  0
 37 38  1  0
 38 39  2  0
 39 40  1  0
 39 34  1  0
 35 41  1  0
 36 42  1  0
 37 43  1  0
 38 44  1  0
 40 45  1  0
  4 34  1  0
M  END
>  <attachment_point>  (152) 
21

>  <score>  (152) 
<NA>

$$$$
4djw
     RDKit          3D

 44 47  0  0  0  0  0  0  0  0999 V2000
   22.4950   11.8750   22.5810 C   0  0  0  0  0  0  0  0  0  0  0  0
   22.5380    9.4930   22.4640 N   0  0  0  0  0  0  0  0  0  0  0  0
   22.3600   13.0630   22.3480 O   0  0  0  0  0  0  0  0  0  0  0  0
   22.3390   10.6680   21.5610 C   0  0  2  0  0  0  0  0  0  0  0  0
   22.7860   11.3350   23.8120 N   0  0  0  0  0  0  0  0  0  0  0  0
   22.7800    9.9140   23.7010 C   0  0  0  0  0  0  0  0  0  0  0  0
   22.9970    9.1110   24.7490 N   0  0  0  0  0  0  0  0  0  0  0  0
   23.0220   12.1410   25.0180 C   0  0  0  0  0  0  0  0  0  0  0  0
   29.1260    9.8230   21.7090 N   0  0  0  0  0  0  0  0  0  0  0  0
   23.4880   10.6920   20.5300 C   0  0  0  0  0  0  0  0  0  0  0  0
   23.2110   10.7890   19.1730 C   0  0  0  0  0  0  0  0  0  0  0  0
   24.2350   10.8650   18.2430 C   0  0  0  0  0  0  0  0  0  0  0  0
   25.5500   10.8410   18.6560 C   0  0  0  0  0  0  0  0  0  0  0  0
   25.8710   10.7460   20.0070 C   0  0  0  0  0  0  0  0  0  0  0  0
   24.8260   10.6610   20.9430 C   0  0  0  0  0  0  0  0  0  0  0  0
   29.8540   10.9130   21.4510 C   0  0  0  0  0  0  0  0  0  0  0  0
   27.8830    9.7800   21.2080 C   0  0  0  0  0  0  0  0  0  0  0  0
   27.3000   10.8010   20.4650 C   0  0  0  0  0  0  0  0  0  0  0  0
   28.0930   11.9190   20.2200 C   0  0  0  0  0  0  0  0  0  0  0  0
   29.3850   11.9780   20.7130 C   0  0  0  0  0  0  0  0  0  0  0  0
    0.0000    0.0000    0.0000 H   0  0  0  0  0  0  0  0  0  0  0  0
    0.0000    0.0000    0.0000 H   0  0  0  0  0  0  0  0  0  0  0  0
    0.0000    0.0000    0.0000 H   0  0  0  0  0  0  0  0  0  0  0  0
    0.0000    0.0000    0.0000 H   0  0  0  0  0  0  0  0  0  0  0  0
    0.0000    0.0000    0.0000 H   0  0  0  0  0  0  0  0  0  0  0  0
    0.0000    0.0000    0.0000 H   0  0  0  0  0  0  0  0  0  0  0  0
    0.0000    0.0000    0.0000 H   0  0  0  0  0  0  0  0  0  0  0  0
    0.0000    0.0000    0.0000 H   0  0  0  0  0  0  0  0  0  0  0  0
    0.0000    0.0000    0.0000 H   0  0  0  0  0  0  0  0  0  0  0  0
    0.0000    0.0000    0.0000 H   0  0  0  0  0  0  0  0  0  0  0  0
    0.0000    0.0000    0.0000 H   0  0  0  0  0  0  0  0  0  0  0  0
    0.0000    0.0000    0.0000 H   0  0  0  0  0  0  0  0  0  0  0  0
    0.0000    0.0000    0.0000 H   0  0  0  0  0  0  0  0  0  0  0  0
   10.8867    5.1990   10.5076 C   0  0  0  0  0  0  0  0  0  0  0  0
   10.0269    6.3870   10.0569 C   0  0  0  0  0  0  0  0  0  0  0  0
    9.3490    6.2504   11.4280 C   0  0  0  0  0  0  0  0  0  0  0  0
    9.6417    4.7524   11.2807 C   0  0  0  0  0  0  0  0  0  0  0  0
   11.1975    4.5394    9.7028 H   0  0  0  0  0  0  0  0  0  0  0  0
    9.3435    6.0547    9.2372 H   0  0  0  0  0  0  0  0  0  0  0  0
   10.5660    7.3163    9.8986 H   0  0  0  0  0  0  0  0  0  0  0  0
   10.0120    6.6839   12.2005 H   0  0  0  0  0  0  0  0  0  0  0  0
    8.2980    6.5184   11.4536 H   0  0  0  0  0  0  0  0  0  0  0  0
    9.8448    4.2295   12.2193 H   0  0  0  0  0  0  0  0  0  0  0  0
    8.9126    4.2677   10.5940 H   0  0  0  0  0  0  0  0  0  0  0  0
  1  3  2  0
  1  4  1  0
  2  4  1  0
  1  5  1  0
  2  6  1  0
  5  6  1  0
  6  7  2  3
  5  8  1  0
  4 10  1  0
 10 11  2  0
 11 12  1  0
 12 13  2  0
 13 14  1  0
 10 15  1  0
 14 15  2  0
  9 16  2  0
  9 17  1  0
 14 18  1  0
 17 18  2  0
 18 19  1  0
 16 20  1  0
 19 20  2  0
  2 21  1  0
  7 22  1  0
  8 23  1  0
  8 24  1  0
  8 25  1  0
 11 26  1  0
 12 27  1  0
 13 28  1  0
 15 29  1  0
 16 30  1  0
 17 31  1  0
 19 32  1  0
 20 33  1  0
 34 35  1  0
 35 36  1  0
 36 37  1  0
 37 34  1  0
 34 38  1  0
 35 39  1  0
 35 40  1  0
 36 41  1  0
 36 42  1  0
 37 43  1  0
 37 44  1  0
  4 34  1  6
M  END
>  <attachment_point>  (153) 
21

>  <score>  (153) 
<NA>

$$$$
4djw
     RDKit          3D

 39 41  0  0  0  0  0  0  0  0999 V2000
   22.4950   11.8750   22.5810 C   0  0  0  0  0  0  0  0  0  0  0  0
   22.5380    9.4930   22.4640 N   0  0  0  0  0  0  0  0  0  0  0  0
   22.3600   13.0630   22.3480 O   0  0  0  0  0  0  0  0  0  0  0  0
   22.3390   10.6680   21.5610 C   0  0  2  0  0  0  0  0  0  0  0  0
   22.7860   11.3350   23.8120 N   0  0  0  0  0  0  0  0  0  0  0  0
   22.7800    9.9140   23.7010 C   0  0  0  0  0  0  0  0  0  0  0  0
   22.9970    9.1110   24.7490 N   0  0  0  0  0  0  0  0  0  0  0  0
   23.0220   12.1410   25.0180 C   0  0  0  0  0  0  0  0  0  0  0  0
   29.1260    9.8230   21.7090 N   0  0  0  0  0  0  0  0  0  0  0  0
   23.4880   10.6920   20.5300 C   0  0  0  0  0  0  0  0  0  0  0  0
   23.2110   10.7890   19.1730 C   0  0  0  0  0  0  0  0  0  0  0  0
   24.2350   10.8650   18.2430 C   0  0  0  0  0  0  0  0  0  0  0  0
   25.5500   10.8410   18.6560 C   0  0  0  0  0  0  0  0  0  0  0  0
   25.8710   10.7460   20.0070 C   0  0  0  0  0  0  0  0  0  0  0  0
   24.8260   10.6610   20.9430 C   0  0  0  0  0  0  0  0  0  0  0  0
   29.8540   10.9130   21.4510 C   0  0  0  0  0  0  0  0  0  0  0  0
   27.8830    9.7800   21.2080 C   0  0  0  0  0  0  0  0  0  0  0  0
   27.3000   10.8010   20.4650 C   0  0  0  0  0  0  0  0  0  0  0  0
   28.0930   11.9190   20.2200 C   0  0  0  0  0  0  0  0  0  0  0  0
   29.3850   11.9780   20.7130 C   0  0  0  0  0  0  0  0  0  0  0  0
    0.0000    0.0000    0.0000 H   0  0  0  0  0  0  0  0  0  0  0  0
    0.0000    0.0000    0.0000 H   0  0  0  0  0  0  0  0  0  0  0  0
    0.0000    0.0000    0.0000 H   0  0  0  0  0  0  0  0  0  0  0  0
    0.0000    0.0000    0.0000 H   0  0  0  0  0  0  0  0  0  0  0  0
    0.0000    0.0000    0.0000 H   0  0  0  0  0  0  0  0  0  0  0  0
    0.0000    0.0000    0.0000 H   0  0  0  0  0  0  0  0  0  0  0  0
    0.0000    0.0000    0.0000 H   0  0  0  0  0  0  0  0  0  0  0  0
    0.0000    0.0000    0.0000 H   0  0  0  0  0  0  0  0  0  0  0  0
    0.0000    0.0000    0.0000 H   0  0  0  0  0  0  0  0  0  0  0  0
    0.0000    0.0000    0.0000 H   0  0  0  0  0  0  0  0  0  0  0  0
    0.0000    0.0000    0.0000 H   0  0  0  0  0  0  0  0  0  0  0  0
    0.0000    0.0000    0.0000 H   0  0  0  0  0  0  0  0  0  0  0  0
    0.0000    0.0000    0.0000 H   0  0  0  0  0  0  0  0  0  0  0  0
   10.8540    5.1833   10.4760 C   0  0  0  0  0  0  0  0  0  0  0  0
   11.2787    4.2375    9.7276 N   0  0  0  0  0  0  0  0  0  0  0  0
    9.5767    5.7521   10.4320 N   0  0  0  0  0  0  0  0  0  0  0  0
   10.6301    3.8396    9.0127 H   0  0  0  0  0  0  0  0  0  0  0  0
    8.7663    5.1313   10.2176 H   0  0  0  0  0  0  0  0  0  0  0  0
    9.3907    6.7648   10.6022 H   0  0  0  0  0  0  0  0  0  0  0  0
  1  3  2  0
  1  4  1  0
  2  4  1  0
  1  5  1  0
  2  6  1  0
  5  6  1  0
  6  7  2  3
  5  8  1  0
  4 10  1  6
 10 11  2  0
 11 12  1  0
 12 13  2  0
 13 14  1  0
 10 15  1  0
 14 15  2  0
  9 16  2  0
  9 17  1  0
 14 18  1  0
 17 18  2  0
 18 19  1  0
 16 20  1  0
 19 20  2  0
  2 21  1  0
  7 22  1  0
  8 23  1  0
  8 24  1  0
  8 25  1  0
 11 26  1  0
 12 27  1  0
 13 28  1  0
 15 29  1  0
 16 30  1  0
 17 31  1  0
 19 32  1  0
 20 33  1  0
 34 35  2  3
 34 36  1  0
 35 37  1  0
 36 38  1  0
 36 39  1  0
  4 34  1  0
M  END
>  <attachment_point>  (154) 
21

>  <score>  (154) 
<NA>

$$$$
4djw
     RDKit          3D

 47 51  0  0  0  0  0  0  0  0999 V2000
   22.4950   11.8750   22.5810 C   0  0  0  0  0  0  0  0  0  0  0  0
   22.5380    9.4930   22.4640 N   0  0  0  0  0  0  0  0  0  0  0  0
   22.3600   13.0630   22.3480 O   0  0  0  0  0  0  0  0  0  0  0  0
   22.3390   10.6680   21.5610 C   0  0  2  0  0  0  0  0  0  0  0  0
   22.7860   11.3350   23.8120 N   0  0  0  0  0  0  0  0  0  0  0  0
   22.7800    9.9140   23.7010 C   0  0  0  0  0  0  0  0  0  0  0  0
   22.9970    9.1110   24.7490 N   0  0  0  0  0  0  0  0  0  0  0  0
   23.0220   12.1410   25.0180 C   0  0  0  0  0  0  0  0  0  0  0  0
   29.1260    9.8230   21.7090 N   0  0  0  0  0  0  0  0  0  0  0  0
   23.4880   10.6920   20.5300 C   0  0  0  0  0  0  0  0  0  0  0  0
   23.2110   10.7890   19.1730 C   0  0  0  0  0  0  0  0  0  0  0  0
   24.2350   10.8650   18.2430 C   0  0  0  0  0  0  0  0  0  0  0  0
   25.5500   10.8410   18.6560 C   0  0  0  0  0  0  0  0  0  0  0  0
   25.8710   10.7460   20.0070 C   0  0  0  0  0  0  0  0  0  0  0  0
   24.8260   10.6610   20.9430 C   0  0  0  0  0  0  0  0  0  0  0  0
   29.8540   10.9130   21.4510 C   0  0  0  0  0  0  0  0  0  0  0  0
   27.8830    9.7800   21.2080 C   0  0  0  0  0  0  0  0  0  0  0  0
   27.3000   10.8010   20.4650 C   0  0  0  0  0  0  0  0  0  0  0  0
   28.0930   11.9190   20.2200 C   0  0  0  0  0  0  0  0  0  0  0  0
   29.3850   11.9780   20.7130 C   0  0  0  0  0  0  0  0  0  0  0  0
    0.0000    0.0000    0.0000 H   0  0  0  0  0  0  0  0  0  0  0  0
    0.0000    0.0000    0.0000 H   0  0  0  0  0  0  0  0  0  0  0  0
    0.0000    0.0000    0.0000 H   0  0  0  0  0  0  0  0  0  0  0  0
    0.0000    0.0000    0.0000 H   0  0  0  0  0  0  0  0  0  0  0  0
    0.0000    0.0000    0.0000 H   0  0  0  0  0  0  0  0  0  0  0  0
    0.0000    0.0000    0.0000 H   0  0  0  0  0  0  0  0  0  0  0  0
    0.0000    0.0000    0.0000 H   0  0  0  0  0  0  0  0  0  0  0  0
    0.0000    0.0000    0.0000 H   0  0  0  0  0  0  0  0  0  0  0  0
    0.0000    0.0000    0.0000 H   0  0  0  0  0  0  0  0  0  0  0  0
    0.0000    0.0000    0.0000 H   0  0  0  0  0  0  0  0  0  0  0  0
    0.0000    0.0000    0.0000 H   0  0  0  0  0  0  0  0  0  0  0  0
    0.0000    0.0000    0.0000 H   0  0  0  0  0  0  0  0  0  0  0  0
    0.0000    0.0000    0.0000 H   0  0  0  0  0  0  0  0  0  0  0  0
   10.8144    5.1644   10.4377 C   0  0  0  0  0  0  0  0  0  0  0  0
    9.5097    5.1160   10.7144 C   0  0  0  0  0  0  0  0  0  0  0  0
    8.9250    4.6132    9.5526 C   0  0  0  0  0  0  0  0  0  0  0  0
    7.6565    4.3065    9.1277 C   0  0  0  0  0  0  0  0  0  0  0  0
    7.4302    3.8050    7.8578 C   0  0  0  0  0  0  0  0  0  0  0  0
    8.4813    3.6023    6.9886 C   0  0  0  0  0  0  0  0  0  0  0  0
    9.7650    3.9041    7.3957 C   0  0  0  0  0  0  0  0  0  0  0  0
    9.9766    4.3996    8.6543 C   0  0  0  0  0  0  0  0  0  0  0  0
   11.1034    4.7637    9.2767 O   0  0  0  0  0  0  0  0  0  0  0  0
    8.9248    5.3737   11.5852 H   0  0  0  0  0  0  0  0  0  0  0  0
    6.8448    4.4790    9.8412 H   0  0  0  0  0  0  0  0  0  0  0  0
    6.3970    3.5801    7.5780 H   0  0  0  0  0  0  0  0  0  0  0  0
    8.2590    3.2114    6.0129 H   0  0  0  0  0  0  0  0  0  0  0  0
   10.5763    3.7394    6.7031 H   0  0  0  0  0  0  0  0  0  0  0  0
  1  3  2  0
  1  4  1  0
  2  4  1  0
  1  5  1  0
  2  6  1  0
  5  6  1  0
  6  7  2  3
  5  8  1  0
  4 10  1  6
 10 11  2  0
 11 12  1  0
 12 13  2  0
 13 14  1  0
 10 15  1  0
 14 15  2  0
  9 16  2  0
  9 17  1  0
 14 18  1  0
 17 18  2  0
 18 19  1  0
 16 20  1  0
 19 20  2  0
  2 21  1  0
  7 22  1  0
  8 23  1  0
  8 24  1  0
  8 25  1  0
 11 26  1  0
 12 27  1  0
 13 28  1  0
 15 29  1  0
 16 30  1  0
 17 31  1  0
 19 32  1  0
 20 33  1  0
 34 35  2  0
 35 36  1  0
 36 37  2  0
 37 38  1  0
 38 39  2  0
 39 40  1  0
 40 41  2  0
 41 42  1  0
 42 34  1  0
 41 36  1  0
 35 43  1  0
 37 44  1  0
 38 45  1  0
 39 46  1  0
 40 47  1  0
  4 34  1  0
M  END
>  <attachment_point>  (155) 
21

>  <score>  (155) 
<NA>

$$$$
4djw
     RDKit          3D

 51 54  0  0  0  0  0  0  0  0999 V2000
   22.4950   11.8750   22.5810 C   0  0  0  0  0  0  0  0  0  0  0  0
   22.5380    9.4930   22.4640 N   0  0  0  0  0  0  0  0  0  0  0  0
   22.3600   13.0630   22.3480 O   0  0  0  0  0  0  0  0  0  0  0  0
   22.3390   10.6680   21.5610 C   0  0  2  0  0  0  0  0  0  0  0  0
   22.7860   11.3350   23.8120 N   0  0  0  0  0  0  0  0  0  0  0  0
   22.7800    9.9140   23.7010 C   0  0  0  0  0  0  0  0  0  0  0  0
   22.9970    9.1110   24.7490 N   0  0  0  0  0  0  0  0  0  0  0  0
   23.0220   12.1410   25.0180 C   0  0  0  0  0  0  0  0  0  0  0  0
   29.1260    9.8230   21.7090 N   0  0  0  0  0  0  0  0  0  0  0  0
   23.4880   10.6920   20.5300 C   0  0  0  0  0  0  0  0  0  0  0  0
   23.2110   10.7890   19.1730 C   0  0  0  0  0  0  0  0  0  0  0  0
   24.2350   10.8650   18.2430 C   0  0  0  0  0  0  0  0  0  0  0  0
   25.5500   10.8410   18.6560 C   0  0  0  0  0  0  0  0  0  0  0  0
   25.8710   10.7460   20.0070 C   0  0  0  0  0  0  0  0  0  0  0  0
   24.8260   10.6610   20.9430 C   0  0  0  0  0  0  0  0  0  0  0  0
   29.8540   10.9130   21.4510 C   0  0  0  0  0  0  0  0  0  0  0  0
   27.8830    9.7800   21.2080 C   0  0  0  0  0  0  0  0  0  0  0  0
   27.3000   10.8010   20.4650 C   0  0  0  0  0  0  0  0  0  0  0  0
   28.0930   11.9190   20.2200 C   0  0  0  0  0  0  0  0  0  0  0  0
   29.3850   11.9780   20.7130 C   0  0  0  0  0  0  0  0  0  0  0  0
    0.0000    0.0000    0.0000 H   0  0  0  0  0  0  0  0  0  0  0  0
    0.0000    0.0000    0.0000 H   0  0  0  0  0  0  0  0  0  0  0  0
    0.0000    0.0000    0.0000 H   0  0  0  0  0  0  0  0  0  0  0  0
    0.0000    0.0000    0.0000 H   0  0  0  0  0  0  0  0  0  0  0  0
    0.0000    0.0000    0.0000 H   0  0  0  0  0  0  0  0  0  0  0  0
    0.0000    0.0000    0.0000 H   0  0  0  0  0  0  0  0  0  0  0  0
    0.0000    0.0000    0.0000 H   0  0  0  0  0  0  0  0  0  0  0  0
    0.0000    0.0000    0.0000 H   0  0  0  0  0  0  0  0  0  0  0  0
    0.0000    0.0000    0.0000 H   0  0  0  0  0  0  0  0  0  0  0  0
    0.0000    0.0000    0.0000 H   0  0  0  0  0  0  0  0  0  0  0  0
    0.0000    0.0000    0.0000 H   0  0  0  0  0  0  0  0  0  0  0  0
    0.0000    0.0000    0.0000 H   0  0  0  0  0  0  0  0  0  0  0  0
    0.0000    0.0000    0.0000 H   0  0  0  0  0  0  0  0  0  0  0  0
   10.8914    5.2012   10.5121 C   0  0  0  0  0  0  0  0  0  0  0  0
   11.5194    4.7443    9.2400 C   0  0  0  0  0  0  0  0  0  0  0  0
   11.9163    3.4331    9.0728 C   0  0  0  0  0  0  0  0  0  0  0  0
   12.5028    2.9705    7.9069 C   0  0  0  0  0  0  0  0  0  0  0  0
   12.7134    3.8311    6.8488 C   0  0  0  0  0  0  0  0  0  0  0  0
   13.2986    3.4092    5.6609 O   0  0  0  0  0  0  0  0  0  0  0  0
   13.6820    2.0488    5.5577 C   0  0  0  0  0  0  0  0  0  0  0  0
   12.3208    5.1532    6.9987 C   0  0  0  0  0  0  0  0  0  0  0  0
   11.7331    5.5998    8.1773 C   0  0  0  0  0  0  0  0  0  0  0  0
   10.1361    5.9675   10.2367 H   0  0  0  0  0  0  0  0  0  0  0  0
   10.3281    4.3675   11.0045 H   0  0  0  0  0  0  0  0  0  0  0  0
   11.7409    2.7713    9.9196 H   0  0  0  0  0  0  0  0  0  0  0  0
   12.7951    1.9340    7.8277 H   0  0  0  0  0  0  0  0  0  0  0  0
   12.8613    1.3629    5.8433 H   0  0  0  0  0  0  0  0  0  0  0  0
   14.1473    1.8055    4.6023 H   0  0  0  0  0  0  0  0  0  0  0  0
   14.4823    1.9008    6.3404 H   0  0  0  0  0  0  0  0  0  0  0  0
   12.4935    5.8077    6.1630 H   0  0  0  0  0  0  0  0  0  0  0  0
   11.4354    6.6444    8.2649 H   0  0  0  0  0  0  0  0  0  0  0  0
  1  3  2  0
  1  4  1  0
  2  4  1  0
  1  5  1  0
  2  6  1  0
  5  6  1  0
  6  7  2  3
  5  8  1  0
  4 10  1  0
 10 11  2  0
 11 12  1  0
 12 13  2  0
 13 14  1  0
 10 15  1  0
 14 15  2  0
  9 16  2  0
  9 17  1  0
 14 18  1  0
 17 18  2  0
 18 19  1  0
 16 20  1  0
 19 20  2  0
  2 21  1  0
  7 22  1  0
  8 23  1  0
  8 24  1  0
  8 25  1  0
 11 26  1  0
 12 27  1  0
 13 28  1  0
 15 29  1  0
 16 30  1  0
 17 31  1  0
 19 32  1  0
 20 33  1  0
 34 35  1  0
 35 36  2  0
 36 37  1  0
 37 38  2  0
 38 39  1  0
 39 40  1  0
 38 41  1  0
 41 42  2  0
 42 35  1  0
 34 43  1  0
 34 44  1  0
 36 45  1  0
 37 46  1  0
 40 47  1  0
 40 48  1  0
 40 49  1  0
 41 50  1  0
 42 51  1  0
  4 34  1  6
M  END
>  <attachment_point>  (156) 
21

>  <score>  (156) 
<NA>

$$$$
4djw
     RDKit          3D

 46 49  0  0  0  0  0  0  0  0999 V2000
   22.4950   11.8750   22.5810 C   0  0  0  0  0  0  0  0  0  0  0  0
   22.5380    9.4930   22.4640 N   0  0  0  0  0  0  0  0  0  0  0  0
   22.3600   13.0630   22.3480 O   0  0  0  0  0  0  0  0  0  0  0  0
   22.3390   10.6680   21.5610 C   0  0  2  0  0  0  0  0  0  0  0  0
   22.7860   11.3350   23.8120 N   0  0  0  0  0  0  0  0  0  0  0  0
   22.7800    9.9140   23.7010 C   0  0  0  0  0  0  0  0  0  0  0  0
   22.9970    9.1110   24.7490 N   0  0  0  0  0  0  0  0  0  0  0  0
   23.0220   12.1410   25.0180 C   0  0  0  0  0  0  0  0  0  0  0  0
   29.1260    9.8230   21.7090 N   0  0  0  0  0  0  0  0  0  0  0  0
   23.4880   10.6920   20.5300 C   0  0  0  0  0  0  0  0  0  0  0  0
   23.2110   10.7890   19.1730 C   0  0  0  0  0  0  0  0  0  0  0  0
   24.2350   10.8650   18.2430 C   0  0  0  0  0  0  0  0  0  0  0  0
   25.5500   10.8410   18.6560 C   0  0  0  0  0  0  0  0  0  0  0  0
   25.8710   10.7460   20.0070 C   0  0  0  0  0  0  0  0  0  0  0  0
   24.8260   10.6610   20.9430 C   0  0  0  0  0  0  0  0  0  0  0  0
   29.8540   10.9130   21.4510 C   0  0  0  0  0  0  0  0  0  0  0  0
   27.8830    9.7800   21.2080 C   0  0  0  0  0  0  0  0  0  0  0  0
   27.3000   10.8010   20.4650 C   0  0  0  0  0  0  0  0  0  0  0  0
   28.0930   11.9190   20.2200 C   0  0  0  0  0  0  0  0  0  0  0  0
   29.3850   11.9780   20.7130 C   0  0  0  0  0  0  0  0  0  0  0  0
    0.0000    0.0000    0.0000 H   0  0  0  0  0  0  0  0  0  0  0  0
    0.0000    0.0000    0.0000 H   0  0  0  0  0  0  0  0  0  0  0  0
    0.0000    0.0000    0.0000 H   0  0  0  0  0  0  0  0  0  0  0  0
    0.0000    0.0000    0.0000 H   0  0  0  0  0  0  0  0  0  0  0  0
    0.0000    0.0000    0.0000 H   0  0  0  0  0  0  0  0  0  0  0  0
    0.0000    0.0000    0.0000 H   0  0  0  0  0  0  0  0  0  0  0  0
    0.0000    0.0000    0.0000 H   0  0  0  0  0  0  0  0  0  0  0  0
    0.0000    0.0000    0.0000 H   0  0  0  0  0  0  0  0  0  0  0  0
    0.0000    0.0000    0.0000 H   0  0  0  0  0  0  0  0  0  0  0  0
    0.0000    0.0000    0.0000 H   0  0  0  0  0  0  0  0  0  0  0  0
    0.0000    0.0000    0.0000 H   0  0  0  0  0  0  0  0  0  0  0  0
    0.0000    0.0000    0.0000 H   0  0  0  0  0  0  0  0  0  0  0  0
    0.0000    0.0000    0.0000 H   0  0  0  0  0  0  0  0  0  0  0  0
   10.8993    5.2050   10.5197 C   0  0  0  0  0  0  0  0  0  0  0  0
    9.6144    5.9351   10.7094 C   0  0  0  0  0  0  0  0  0  0  0  0
    9.3320    7.1089   10.0373 C   0  0  0  0  0  0  0  0  0  0  0  0
    8.1409    7.7886   10.2111 C   0  0  0  0  0  0  0  0  0  0  0  0
    7.1751    7.3113   11.0764 C   0  0  0  0  0  0  0  0  0  0  0  0
    7.4911    6.1366   11.7308 C   0  0  0  0  0  0  0  0  0  0  0  0
    8.6571    5.4896   11.5476 N   0  0  0  0  0  0  0  0  0  0  0  0
   11.2955    5.3511    9.4759 H   0  0  0  0  0  0  0  0  0  0  0  0
   10.6326    4.1138   10.5634 H   0  0  0  0  0  0  0  0  0  0  0  0
   10.1003    7.4658    9.3649 H   0  0  0  0  0  0  0  0  0  0  0  0
    7.9384    8.7141    9.6702 H   0  0  0  0  0  0  0  0  0  0  0  0
    6.2366    7.8326   11.2235 H   0  0  0  0  0  0  0  0  0  0  0  0
    6.7330    5.7461   12.4212 H   0  0  0  0  0  0  0  0  0  0  0  0
  1  3  2  0
  1  4  1  0
  2  4  1  0
  1  5  1  0
  2  6  1  0
  5  6  1  0
  6  7  2  3
  5  8  1  0
  4 10  1  0
 10 11  2  0
 11 12  1  0
 12 13  2  0
 13 14  1  0
 10 15  1  0
 14 15  2  0
  9 16  2  0
  9 17  1  0
 14 18  1  0
 17 18  2  0
 18 19  1  0
 16 20  1  0
 19 20  2  0
  2 21  1  0
  7 22  1  0
  8 23  1  0
  8 24  1  0
  8 25  1  0
 11 26  1  0
 12 27  1  0
 13 28  1  0
 15 29  1  0
 16 30  1  0
 17 31  1  0
 19 32  1  0
 20 33  1  0
 34 35  1  0
 35 36  2  0
 36 37  1  0
 37 38  2  0
 38 39  1  0
 39 40  2  0
 40 35  1  0
 34 41  1  0
 34 42  1  0
 36 43  1  0
 37 44  1  0
 38 45  1  0
 39 46  1  0
  4 34  1  6
M  END
>  <attachment_point>  (157) 
21

>  <score>  (157) 
<NA>

$$$$
4djw
     RDKit          3D

 38 40  0  0  0  0  0  0  0  0999 V2000
   22.4950   11.8750   22.5810 C   0  0  0  0  0  0  0  0  0  0  0  0
   22.5380    9.4930   22.4640 N   0  0  0  0  0  0  0  0  0  0  0  0
   22.3600   13.0630   22.3480 O   0  0  0  0  0  0  0  0  0  0  0  0
   22.3390   10.6680   21.5610 C   0  0  2  0  0  0  0  0  0  0  0  0
   22.7860   11.3350   23.8120 N   0  0  0  0  0  0  0  0  0  0  0  0
   22.7800    9.9140   23.7010 C   0  0  0  0  0  0  0  0  0  0  0  0
   22.9970    9.1110   24.7490 N   0  0  0  0  0  0  0  0  0  0  0  0
   23.0220   12.1410   25.0180 C   0  0  0  0  0  0  0  0  0  0  0  0
   29.1260    9.8230   21.7090 N   0  0  0  0  0  0  0  0  0  0  0  0
   23.4880   10.6920   20.5300 C   0  0  0  0  0  0  0  0  0  0  0  0
   23.2110   10.7890   19.1730 C   0  0  0  0  0  0  0  0  0  0  0  0
   24.2350   10.8650   18.2430 C   0  0  0  0  0  0  0  0  0  0  0  0
   25.5500   10.8410   18.6560 C   0  0  0  0  0  0  0  0  0  0  0  0
   25.8710   10.7460   20.0070 C   0  0  0  0  0  0  0  0  0  0  0  0
   24.8260   10.6610   20.9430 C   0  0  0  0  0  0  0  0  0  0  0  0
   29.8540   10.9130   21.4510 C   0  0  0  0  0  0  0  0  0  0  0  0
   27.8830    9.7800   21.2080 C   0  0  0  0  0  0  0  0  0  0  0  0
   27.3000   10.8010   20.4650 C   0  0  0  0  0  0  0  0  0  0  0  0
   28.0930   11.9190   20.2200 C   0  0  0  0  0  0  0  0  0  0  0  0
   29.3850   11.9780   20.7130 C   0  0  0  0  0  0  0  0  0  0  0  0
    0.0000    0.0000    0.0000 H   0  0  0  0  0  0  0  0  0  0  0  0
    0.0000    0.0000    0.0000 H   0  0  0  0  0  0  0  0  0  0  0  0
    0.0000    0.0000    0.0000 H   0  0  0  0  0  0  0  0  0  0  0  0
    0.0000    0.0000    0.0000 H   0  0  0  0  0  0  0  0  0  0  0  0
    0.0000    0.0000    0.0000 H   0  0  0  0  0  0  0  0  0  0  0  0
    0.0000    0.0000    0.0000 H   0  0  0  0  0  0  0  0  0  0  0  0
    0.0000    0.0000    0.0000 H   0  0  0  0  0  0  0  0  0  0  0  0
    0.0000    0.0000    0.0000 H   0  0  0  0  0  0  0  0  0  0  0  0
    0.0000    0.0000    0.0000 H   0  0  0  0  0  0  0  0  0  0  0  0
    0.0000    0.0000    0.0000 H   0  0  0  0  0  0  0  0  0  0  0  0
    0.0000    0.0000    0.0000 H   0  0  0  0  0  0  0  0  0  0  0  0
    0.0000    0.0000    0.0000 H   0  0  0  0  0  0  0  0  0  0  0  0
    0.0000    0.0000    0.0000 H   0  0  0  0  0  0  0  0  0  0  0  0
   10.8896    5.2003   10.5104 C   0  0  0  0  0  0  0  0  0  0  0  0
    9.5348    5.3961   11.0392 C   0  0  0  0  0  0  0  0  0  0  0  0
    8.4634    5.5310   11.4550 N   0  0  0  0  0  0  0  0  0  0  0  0
   11.0258    5.8357    9.5869 H   0  0  0  0  0  0  0  0  0  0  0  0
   10.9799    4.1302   10.2394 H   0  0  0  0  0  0  0  0  0  0  0  0
  1  3  2  0
  1  4  1  0
  2  4  1  0
  1  5  1  0
  2  6  1  0
  5  6  1  0
  6  7  2  3
  5  8  1  0
  4 10  1  0
 10 11  2  0
 11 12  1  0
 12 13  2  0
 13 14  1  0
 10 15  1  0
 14 15  2  0
  9 16  2  0
  9 17  1  0
 14 18  1  0
 17 18  2  0
 18 19  1  0
 16 20  1  0
 19 20  2  0
  2 21  1  0
  7 22  1  0
  8 23  1  0
  8 24  1  0
  8 25  1  0
 11 26  1  0
 12 27  1  0
 13 28  1  0
 15 29  1  0
 16 30  1  0
 17 31  1  0
 19 32  1  0
 20 33  1  0
 34 35  1  0
 35 36  3  0
 34 37  1  0
 34 38  1  0
  4 34  1  6
M  END
>  <attachment_point>  (158) 
21

>  <score>  (158) 
<NA>

$$$$
4djw
     RDKit          3D

 44 47  0  0  0  0  0  0  0  0999 V2000
   22.4950   11.8750   22.5810 C   0  0  0  0  0  0  0  0  0  0  0  0
   22.5380    9.4930   22.4640 N   0  0  0  0  0  0  0  0  0  0  0  0
   22.3600   13.0630   22.3480 O   0  0  0  0  0  0  0  0  0  0  0  0
   22.3390   10.6680   21.5610 C   0  0  2  0  0  0  0  0  0  0  0  0
   22.7860   11.3350   23.8120 N   0  0  0  0  0  0  0  0  0  0  0  0
   22.7800    9.9140   23.7010 C   0  0  0  0  0  0  0  0  0  0  0  0
   22.9970    9.1110   24.7490 N   0  0  0  0  0  0  0  0  0  0  0  0
   23.0220   12.1410   25.0180 C   0  0  0  0  0  0  0  0  0  0  0  0
   29.1260    9.8230   21.7090 N   0  0  0  0  0  0  0  0  0  0  0  0
   23.4880   10.6920   20.5300 C   0  0  0  0  0  0  0  0  0  0  0  0
   23.2110   10.7890   19.1730 C   0  0  0  0  0  0  0  0  0  0  0  0
   24.2350   10.8650   18.2430 C   0  0  0  0  0  0  0  0  0  0  0  0
   25.5500   10.8410   18.6560 C   0  0  0  0  0  0  0  0  0  0  0  0
   25.8710   10.7460   20.0070 C   0  0  0  0  0  0  0  0  0  0  0  0
   24.8260   10.6610   20.9430 C   0  0  0  0  0  0  0  0  0  0  0  0
   29.8540   10.9130   21.4510 C   0  0  0  0  0  0  0  0  0  0  0  0
   27.8830    9.7800   21.2080 C   0  0  0  0  0  0  0  0  0  0  0  0
   27.3000   10.8010   20.4650 C   0  0  0  0  0  0  0  0  0  0  0  0
   28.0930   11.9190   20.2200 C   0  0  0  0  0  0  0  0  0  0  0  0
   29.3850   11.9780   20.7130 C   0  0  0  0  0  0  0  0  0  0  0  0
    0.0000    0.0000    0.0000 H   0  0  0  0  0  0  0  0  0  0  0  0
    0.0000    0.0000    0.0000 H   0  0  0  0  0  0  0  0  0  0  0  0
    0.0000    0.0000    0.0000 H   0  0  0  0  0  0  0  0  0  0  0  0
    0.0000    0.0000    0.0000 H   0  0  0  0  0  0  0  0  0  0  0  0
    0.0000    0.0000    0.0000 H   0  0  0  0  0  0  0  0  0  0  0  0
    0.0000    0.0000    0.0000 H   0  0  0  0  0  0  0  0  0  0  0  0
    0.0000    0.0000    0.0000 H   0  0  0  0  0  0  0  0  0  0  0  0
    0.0000    0.0000    0.0000 H   0  0  0  0  0  0  0  0  0  0  0  0
    0.0000    0.0000    0.0000 H   0  0  0  0  0  0  0  0  0  0  0  0
    0.0000    0.0000    0.0000 H   0  0  0  0  0  0  0  0  0  0  0  0
    0.0000    0.0000    0.0000 H   0  0  0  0  0  0  0  0  0  0  0  0
    0.0000    0.0000    0.0000 H   0  0  0  0  0  0  0  0  0  0  0  0
    0.0000    0.0000    0.0000 H   0  0  0  0  0  0  0  0  0  0  0  0
   10.8884    5.1998   10.5092 C   0  0  0  0  0  0  0  0  0  0  0  0
   11.3265    4.5852    9.3538 C   0  0  0  0  0  0  0  0  0  0  0  0
   10.4135    4.1220    8.4203 C   0  0  0  0  0  0  0  0  0  0  0  0
    9.0602    4.2815    8.6579 C   0  0  0  0  0  0  0  0  0  0  0  0
    7.8626    3.7075    7.4976 Cl  0  0  0  0  0  0  0  0  0  0  0  0
    8.6030    4.8882    9.7971 C   0  0  0  0  0  0  0  0  0  0  0  0
    6.8888    5.1052   10.1263 Cl  0  0  0  0  0  0  0  0  0  0  0  0
    9.5160    5.3447   10.7178 C   0  0  0  0  0  0  0  0  0  0  0  0
   12.3685    4.4319    9.1128 H   0  0  0  0  0  0  0  0  0  0  0  0
   10.7337    3.6372    7.5077 H   0  0  0  0  0  0  0  0  0  0  0  0
    9.1351    5.8295   11.6274 H   0  0  0  0  0  0  0  0  0  0  0  0
  1  3  2  0
  1  4  1  0
  2  4  1  0
  1  5  1  0
  2  6  1  0
  5  6  1  0
  6  7  2  3
  5  8  1  0
  4 10  1  6
 10 11  2  0
 11 12  1  0
 12 13  2  0
 13 14  1  0
 10 15  1  0
 14 15  2  0
  9 16  2  0
  9 17  1  0
 14 18  1  0
 17 18  2  0
 18 19  1  0
 16 20  1  0
 19 20  2  0
  2 21  1  0
  7 22  1  0
  8 23  1  0
  8 24  1  0
  8 25  1  0
 11 26  1  0
 12 27  1  0
 13 28  1  0
 15 29  1  0
 16 30  1  0
 17 31  1  0
 19 32  1  0
 20 33  1  0
 34 35  2  0
 35 36  1  0
 36 37  2  0
 37 38  1  0
 37 39  1  0
 39 40  1  0
 39 41  2  0
 41 34  1  0
 35 42  1  0
 36 43  1  0
 41 44  1  0
  4 34  1  0
M  END
>  <attachment_point>  (159) 
21

>  <score>  (159) 
<NA>

$$$$
4djw
     RDKit          3D

 52 55  0  0  0  0  0  0  0  0999 V2000
   22.4950   11.8750   22.5810 C   0  0  0  0  0  0  0  0  0  0  0  0
   22.5380    9.4930   22.4640 N   0  0  0  0  0  0  0  0  0  0  0  0
   22.3600   13.0630   22.3480 O   0  0  0  0  0  0  0  0  0  0  0  0
   22.3390   10.6680   21.5610 C   0  0  2  0  0  0  0  0  0  0  0  0
   22.7860   11.3350   23.8120 N   0  0  0  0  0  0  0  0  0  0  0  0
   22.7800    9.9140   23.7010 C   0  0  0  0  0  0  0  0  0  0  0  0
   22.9970    9.1110   24.7490 N   0  0  0  0  0  0  0  0  0  0  0  0
   23.0220   12.1410   25.0180 C   0  0  0  0  0  0  0  0  0  0  0  0
   29.1260    9.8230   21.7090 N   0  0  0  0  0  0  0  0  0  0  0  0
   23.4880   10.6920   20.5300 C   0  0  0  0  0  0  0  0  0  0  0  0
   23.2110   10.7890   19.1730 C   0  0  0  0  0  0  0  0  0  0  0  0
   24.2350   10.8650   18.2430 C   0  0  0  0  0  0  0  0  0  0  0  0
   25.5500   10.8410   18.6560 C   0  0  0  0  0  0  0  0  0  0  0  0
   25.8710   10.7460   20.0070 C   0  0  0  0  0  0  0  0  0  0  0  0
   24.8260   10.6610   20.9430 C   0  0  0  0  0  0  0  0  0  0  0  0
   29.8540   10.9130   21.4510 C   0  0  0  0  0  0  0  0  0  0  0  0
   27.8830    9.7800   21.2080 C   0  0  0  0  0  0  0  0  0  0  0  0
   27.3000   10.8010   20.4650 C   0  0  0  0  0  0  0  0  0  0  0  0
   28.0930   11.9190   20.2200 C   0  0  0  0  0  0  0  0  0  0  0  0
   29.3850   11.9780   20.7130 C   0  0  0  0  0  0  0  0  0  0  0  0
    0.0000    0.0000    0.0000 H   0  0  0  0  0  0  0  0  0  0  0  0
    0.0000    0.0000    0.0000 H   0  0  0  0  0  0  0  0  0  0  0  0
    0.0000    0.0000    0.0000 H   0  0  0  0  0  0  0  0  0  0  0  0
    0.0000    0.0000    0.0000 H   0  0  0  0  0  0  0  0  0  0  0  0
    0.0000    0.0000    0.0000 H   0  0  0  0  0  0  0  0  0  0  0  0
    0.0000    0.0000    0.0000 H   0  0  0  0  0  0  0  0  0  0  0  0
    0.0000    0.0000    0.0000 H   0  0  0  0  0  0  0  0  0  0  0  0
    0.0000    0.0000    0.0000 H   0  0  0  0  0  0  0  0  0  0  0  0
    0.0000    0.0000    0.0000 H   0  0  0  0  0  0  0  0  0  0  0  0
    0.0000    0.0000    0.0000 H   0  0  0  0  0  0  0  0  0  0  0  0
    0.0000    0.0000    0.0000 H   0  0  0  0  0  0  0  0  0  0  0  0
    0.0000    0.0000    0.0000 H   0  0  0  0  0  0  0  0  0  0  0  0
    0.0000    0.0000    0.0000 H   0  0  0  0  0  0  0  0  0  0  0  0
   10.8586    5.1855   10.4804 C   0  0  0  0  0  0  0  0  0  0  0  0
   11.0229    3.9742    9.8765 C   0  0  0  0  0  0  0  0  0  0  0  0
   10.1058    3.4965    8.9680 C   0  0  0  0  0  0  0  0  0  0  0  0
    8.9976    4.2567    8.6608 C   0  0  0  0  0  0  0  0  0  0  0  0
    8.0529    3.7888    7.7392 N   0  0  0  0  0  0  0  0  0  0  0  0
    8.2535    2.4971    7.1125 C   0  0  0  0  0  0  0  0  0  0  0  0
    6.8957    4.6111    7.4351 C   0  0  0  0  0  0  0  0  0  0  0  0
    8.8297    5.5016    9.2821 C   0  0  0  0  0  0  0  0  0  0  0  0
    9.7721    5.9422   10.1859 C   0  0  0  0  0  0  0  0  0  0  0  0
   11.9078    3.3921   10.1366 H   0  0  0  0  0  0  0  0  0  0  0  0
   10.2634    2.5163    8.4962 H   0  0  0  0  0  0  0  0  0  0  0  0
    7.3626    2.1635    6.5665 H   0  0  0  0  0  0  0  0  0  0  0  0
    9.1700    2.5328    6.4824 H   0  0  0  0  0  0  0  0  0  0  0  0
    8.4350    1.7453    7.9181 H   0  0  0  0  0  0  0  0  0  0  0  0
    7.2252    5.6340    7.1768 H   0  0  0  0  0  0  0  0  0  0  0  0
    6.3345    4.1712    6.5729 H   0  0  0  0  0  0  0  0  0  0  0  0
    6.1747    4.6198    8.2823 H   0  0  0  0  0  0  0  0  0  0  0  0
    7.9478    6.1049    9.0366 H   0  0  0  0  0  0  0  0  0  0  0  0
    9.6644    6.9105   10.6848 H   0  0  0  0  0  0  0  0  0  0  0  0
  1  3  2  0
  1  4  1  0
  2  4  1  0
  1  5  1  0
  2  6  1  0
  5  6  1  0
  6  7  2  3
  5  8  1  0
  4 10  1  6
 10 11  2  0
 11 12  1  0
 12 13  2  0
 13 14  1  0
 10 15  1  0
 14 15  2  0
  9 16  2  0
  9 17  1  0
 14 18  1  0
 17 18  2  0
 18 19  1  0
 16 20  1  0
 19 20  2  0
  2 21  1  0
  7 22  1  0
  8 23  1  0
  8 24  1  0
  8 25  1  0
 11 26  1  0
 12 27  1  0
 13 28  1  0
 15 29  1  0
 16 30  1  0
 17 31  1  0
 19 32  1  0
 20 33  1  0
 34 35  2  0
 35 36  1  0
 36 37  2  0
 37 38  1  0
 38 39  1  0
 38 40  1  0
 37 41  1  0
 41 42  2  0
 42 34  1  0
 35 43  1  0
 36 44  1  0
 39 45  1  0
 39 46  1  0
 39 47  1  0
 40 48  1  0
 40 49  1  0
 40 50  1  0
 41 51  1  0
 42 52  1  0
  4 34  1  0
M  END
>  <attachment_point>  (160) 
21

>  <score>  (160) 
<NA>

$$$$
4djw
     RDKit          3D

 47 50  0  0  0  0  0  0  0  0999 V2000
   22.4950   11.8750   22.5810 C   0  0  0  0  0  0  0  0  0  0  0  0
   22.5380    9.4930   22.4640 N   0  0  0  0  0  0  0  0  0  0  0  0
   22.3600   13.0630   22.3480 O   0  0  0  0  0  0  0  0  0  0  0  0
   22.3390   10.6680   21.5610 C   0  0  2  0  0  0  0  0  0  0  0  0
   22.7860   11.3350   23.8120 N   0  0  0  0  0  0  0  0  0  0  0  0
   22.7800    9.9140   23.7010 C   0  0  0  0  0  0  0  0  0  0  0  0
   22.9970    9.1110   24.7490 N   0  0  0  0  0  0  0  0  0  0  0  0
   23.0220   12.1410   25.0180 C   0  0  0  0  0  0  0  0  0  0  0  0
   29.1260    9.8230   21.7090 N   0  0  0  0  0  0  0  0  0  0  0  0
   23.4880   10.6920   20.5300 C   0  0  0  0  0  0  0  0  0  0  0  0
   23.2110   10.7890   19.1730 C   0  0  0  0  0  0  0  0  0  0  0  0
   24.2350   10.8650   18.2430 C   0  0  0  0  0  0  0  0  0  0  0  0
   25.5500   10.8410   18.6560 C   0  0  0  0  0  0  0  0  0  0  0  0
   25.8710   10.7460   20.0070 C   0  0  0  0  0  0  0  0  0  0  0  0
   24.8260   10.6610   20.9430 C   0  0  0  0  0  0  0  0  0  0  0  0
   29.8540   10.9130   21.4510 C   0  0  0  0  0  0  0  0  0  0  0  0
   27.8830    9.7800   21.2080 C   0  0  0  0  0  0  0  0  0  0  0  0
   27.3000   10.8010   20.4650 C   0  0  0  0  0  0  0  0  0  0  0  0
   28.0930   11.9190   20.2200 C   0  0  0  0  0  0  0  0  0  0  0  0
   29.3850   11.9780   20.7130 C   0  0  0  0  0  0  0  0  0  0  0  0
    0.0000    0.0000    0.0000 H   0  0  0  0  0  0  0  0  0  0  0  0
    0.0000    0.0000    0.0000 H   0  0  0  0  0  0  0  0  0  0  0  0
    0.0000    0.0000    0.0000 H   0  0  0  0  0  0  0  0  0  0  0  0
    0.0000    0.0000    0.0000 H   0  0  0  0  0  0  0  0  0  0  0  0
    0.0000    0.0000    0.0000 H   0  0  0  0  0  0  0  0  0  0  0  0
    0.0000    0.0000    0.0000 H   0  0  0  0  0  0  0  0  0  0  0  0
    0.0000    0.0000    0.0000 H   0  0  0  0  0  0  0  0  0  0  0  0
    0.0000    0.0000    0.0000 H   0  0  0  0  0  0  0  0  0  0  0  0
    0.0000    0.0000    0.0000 H   0  0  0  0  0  0  0  0  0  0  0  0
    0.0000    0.0000    0.0000 H   0  0  0  0  0  0  0  0  0  0  0  0
    0.0000    0.0000    0.0000 H   0  0  0  0  0  0  0  0  0  0  0  0
    0.0000    0.0000    0.0000 H   0  0  0  0  0  0  0  0  0  0  0  0
    0.0000    0.0000    0.0000 H   0  0  0  0  0  0  0  0  0  0  0  0
   10.8646    5.1884   10.4862 S   0  0  0  0  0  6  0  0  0  0  0  0
   11.0888    3.7190   10.2614 O   0  0  0  0  0  0  0  0  0  0  0  0
   11.0766    5.9421    9.2203 O   0  0  0  0  0  0  0  0  0  0  0  0
    9.2841    5.4648   11.1796 C   0  0  0  0  0  0  0  0  0  0  0  0
    8.6578    4.5164   11.9622 C   0  0  0  0  0  0  0  0  0  0  0  0
    7.4040    4.7382   12.5111 C   0  0  0  0  0  0  0  0  0  0  0  0
    6.7472    5.9292   12.2827 C   0  0  0  0  0  0  0  0  0  0  0  0
    7.3500    6.8984   11.5022 C   0  0  0  0  0  0  0  0  0  0  0  0
    8.5970    6.6568   10.9665 C   0  0  0  0  0  0  0  0  0  0  0  0
    9.1669    3.5758   12.1477 H   0  0  0  0  0  0  0  0  0  0  0  0
    6.9589    3.9566   13.1191 H   0  0  0  0  0  0  0  0  0  0  0  0
    5.7640    6.1252   12.7025 H   0  0  0  0  0  0  0  0  0  0  0  0
    6.8665    7.8482   11.2990 H   0  0  0  0  0  0  0  0  0  0  0  0
    9.0581    7.4281   10.3551 H   0  0  0  0  0  0  0  0  0  0  0  0
  1  3  2  0
  1  4  1  0
  2  4  1  0
  1  5  1  0
  2  6  1  0
  5  6  1  0
  6  7  2  3
  5  8  1  0
  4 10  1  6
 10 11  2  0
 11 12  1  0
 12 13  2  0
 13 14  1  0
 10 15  1  0
 14 15  2  0
  9 16  2  0
  9 17  1  0
 14 18  1  0
 17 18  2  0
 18 19  1  0
 16 20  1  0
 19 20  2  0
  2 21  1  0
  7 22  1  0
  8 23  1  0
  8 24  1  0
  8 25  1  0
 11 26  1  0
 12 27  1  0
 13 28  1  0
 15 29  1  0
 16 30  1  0
 17 31  1  0
 19 32  1  0
 20 33  1  0
 34 35  2  0
 34 36  2  0
 34 37  1  0
 37 38  2  0
 38 39  1  0
 39 40  2  0
 40 41  1  0
 41 42  2  0
 42 37  1  0
 38 43  1  0
 39 44  1  0
 40 45  1  0
 41 46  1  0
 42 47  1  0
  4 34  1  0
M  END
>  <attachment_point>  (161) 
21

>  <score>  (161) 
<NA>

$$$$
4djw
     RDKit          3D

 44 46  0  0  0  0  0  0  0  0999 V2000
   22.4950   11.8750   22.5810 C   0  0  0  0  0  0  0  0  0  0  0  0
   22.5380    9.4930   22.4640 N   0  0  0  0  0  0  0  0  0  0  0  0
   22.3600   13.0630   22.3480 O   0  0  0  0  0  0  0  0  0  0  0  0
   22.3390   10.6680   21.5610 C   0  0  2  0  0  0  0  0  0  0  0  0
   22.7860   11.3350   23.8120 N   0  0  0  0  0  0  0  0  0  0  0  0
   22.7800    9.9140   23.7010 C   0  0  0  0  0  0  0  0  0  0  0  0
   22.9970    9.1110   24.7490 N   0  0  0  0  0  0  0  0  0  0  0  0
   23.0220   12.1410   25.0180 C   0  0  0  0  0  0  0  0  0  0  0  0
   29.1260    9.8230   21.7090 N   0  0  0  0  0  0  0  0  0  0  0  0
   23.4880   10.6920   20.5300 C   0  0  0  0  0  0  0  0  0  0  0  0
   23.2110   10.7890   19.1730 C   0  0  0  0  0  0  0  0  0  0  0  0
   24.2350   10.8650   18.2430 C   0  0  0  0  0  0  0  0  0  0  0  0
   25.5500   10.8410   18.6560 C   0  0  0  0  0  0  0  0  0  0  0  0
   25.8710   10.7460   20.0070 C   0  0  0  0  0  0  0  0  0  0  0  0
   24.8260   10.6610   20.9430 C   0  0  0  0  0  0  0  0  0  0  0  0
   29.8540   10.9130   21.4510 C   0  0  0  0  0  0  0  0  0  0  0  0
   27.8830    9.7800   21.2080 C   0  0  0  0  0  0  0  0  0  0  0  0
   27.3000   10.8010   20.4650 C   0  0  0  0  0  0  0  0  0  0  0  0
   28.0930   11.9190   20.2200 C   0  0  0  0  0  0  0  0  0  0  0  0
   29.3850   11.9780   20.7130 C   0  0  0  0  0  0  0  0  0  0  0  0
    0.0000    0.0000    0.0000 H   0  0  0  0  0  0  0  0  0  0  0  0
    0.0000    0.0000    0.0000 H   0  0  0  0  0  0  0  0  0  0  0  0
    0.0000    0.0000    0.0000 H   0  0  0  0  0  0  0  0  0  0  0  0
    0.0000    0.0000    0.0000 H   0  0  0  0  0  0  0  0  0  0  0  0
    0.0000    0.0000    0.0000 H   0  0  0  0  0  0  0  0  0  0  0  0
    0.0000    0.0000    0.0000 H   0  0  0  0  0  0  0  0  0  0  0  0
    0.0000    0.0000    0.0000 H   0  0  0  0  0  0  0  0  0  0  0  0
    0.0000    0.0000    0.0000 H   0  0  0  0  0  0  0  0  0  0  0  0
    0.0000    0.0000    0.0000 H   0  0  0  0  0  0  0  0  0  0  0  0
    0.0000    0.0000    0.0000 H   0  0  0  0  0  0  0  0  0  0  0  0
    0.0000    0.0000    0.0000 H   0  0  0  0  0  0  0  0  0  0  0  0
    0.0000    0.0000    0.0000 H   0  0  0  0  0  0  0  0  0  0  0  0
    0.0000    0.0000    0.0000 H   0  0  0  0  0  0  0  0  0  0  0  0
   10.8870    5.1991   10.5078 C   0  0  0  0  0  0  0  0  0  0  0  0
   10.8540    3.7423   10.5797 N   0  0  0  0  0  0  0  0  0  0  0  0
    9.9775    2.9981    9.7572 C   0  0  0  0  0  0  0  0  0  0  0  0
    9.9663    1.5243    9.8521 C   0  0  0  0  0  0  0  0  0  0  0  0
    9.2180    3.5808    8.9560 O   0  0  0  0  0  0  0  0  0  0  0  0
   11.2538    5.5090    9.4983 H   0  0  0  0  0  0  0  0  0  0  0  0
    9.8765    5.5957   10.7295 H   0  0  0  0  0  0  0  0  0  0  0  0
   11.4878    3.2161   11.2512 H   0  0  0  0  0  0  0  0  0  0  0  0
   10.6675    1.1347   10.6030 H   0  0  0  0  0  0  0  0  0  0  0  0
   10.2765    1.1066    8.8696 H   0  0  0  0  0  0  0  0  0  0  0  0
    8.9486    1.1420   10.0908 H   0  0  0  0  0  0  0  0  0  0  0  0
  1  3  2  0
  1  4  1  0
  2  4  1  0
  1  5  1  0
  2  6  1  0
  5  6  1  0
  6  7  2  3
  5  8  1  0
  4 10  1  0
 10 11  2  0
 11 12  1  0
 12 13  2  0
 13 14  1  0
 10 15  1  0
 14 15  2  0
  9 16  2  0
  9 17  1  0
 14 18  1  0
 17 18  2  0
 18 19  1  0
 16 20  1  0
 19 20  2  0
  2 21  1  0
  7 22  1  0
  8 23  1  0
  8 24  1  0
  8 25  1  0
 11 26  1  0
 12 27  1  0
 13 28  1  0
 15 29  1  0
 16 30  1  0
 17 31  1  0
 19 32  1  0
 20 33  1  0
 34 35  1  0
 35 36  1  0
 36 37  1  0
 36 38  2  0
 34 39  1  0
 34 40  1  0
 35 41  1  0
 37 42  1  0
 37 43  1  0
 37 44  1  0
  4 34  1  6
M  END
>  <attachment_point>  (162) 
21

>  <score>  (162) 
<NA>

$$$$
4djw
     RDKit          3D

 35 37  0  0  0  0  0  0  0  0999 V2000
   22.4950   11.8750   22.5810 C   0  0  0  0  0  0  0  0  0  0  0  0
   22.5380    9.4930   22.4640 N   0  0  0  0  0  0  0  0  0  0  0  0
   22.3600   13.0630   22.3480 O   0  0  0  0  0  0  0  0  0  0  0  0
   22.3390   10.6680   21.5610 C   0  0  2  0  0  0  0  0  0  0  0  0
   22.7860   11.3350   23.8120 N   0  0  0  0  0  0  0  0  0  0  0  0
   22.7800    9.9140   23.7010 C   0  0  0  0  0  0  0  0  0  0  0  0
   22.9970    9.1110   24.7490 N   0  0  0  0  0  0  0  0  0  0  0  0
   23.0220   12.1410   25.0180 C   0  0  0  0  0  0  0  0  0  0  0  0
   29.1260    9.8230   21.7090 N   0  0  0  0  0  0  0  0  0  0  0  0
   23.4880   10.6920   20.5300 C   0  0  0  0  0  0  0  0  0  0  0  0
   23.2110   10.7890   19.1730 C   0  0  0  0  0  0  0  0  0  0  0  0
   24.2350   10.8650   18.2430 C   0  0  0  0  0  0  0  0  0  0  0  0
   25.5500   10.8410   18.6560 C   0  0  0  0  0  0  0  0  0  0  0  0
   25.8710   10.7460   20.0070 C   0  0  0  0  0  0  0  0  0  0  0  0
   24.8260   10.6610   20.9430 C   0  0  0  0  0  0  0  0  0  0  0  0
   29.8540   10.9130   21.4510 C   0  0  0  0  0  0  0  0  0  0  0  0
   27.8830    9.7800   21.2080 C   0  0  0  0  0  0  0  0  0  0  0  0
   27.3000   10.8010   20.4650 C   0  0  0  0  0  0  0  0  0  0  0  0
   28.0930   11.9190   20.2200 C   0  0  0  0  0  0  0  0  0  0  0  0
   29.3850   11.9780   20.7130 C   0  0  0  0  0  0  0  0  0  0  0  0
    0.0000    0.0000    0.0000 H   0  0  0  0  0  0  0  0  0  0  0  0
    0.0000    0.0000    0.0000 H   0  0  0  0  0  0  0  0  0  0  0  0
    0.0000    0.0000    0.0000 H   0  0  0  0  0  0  0  0  0  0  0  0
    0.0000    0.0000    0.0000 H   0  0  0  0  0  0  0  0  0  0  0  0
    0.0000    0.0000    0.0000 H   0  0  0  0  0  0  0  0  0  0  0  0
    0.0000    0.0000    0.0000 H   0  0  0  0  0  0  0  0  0  0  0  0
    0.0000    0.0000    0.0000 H   0  0  0  0  0  0  0  0  0  0  0  0
    0.0000    0.0000    0.0000 H   0  0  0  0  0  0  0  0  0  0  0  0
    0.0000    0.0000    0.0000 H   0  0  0  0  0  0  0  0  0  0  0  0
    0.0000    0.0000    0.0000 H   0  0  0  0  0  0  0  0  0  0  0  0
    0.0000    0.0000    0.0000 H   0  0  0  0  0  0  0  0  0  0  0  0
    0.0000    0.0000    0.0000 H   0  0  0  0  0  0  0  0  0  0  0  0
    0.0000    0.0000    0.0000 H   0  0  0  0  0  0  0  0  0  0  0  0
   10.9586    5.2333   10.5770 S   0  0  0  0  0  0  0  0  0  0  0  0
    9.7182    4.5750   10.6912 H   0  0  0  0  0  0  0  0  0  0  0  0
  1  3  2  0
  1  4  1  0
  2  4  1  0
  1  5  1  0
  2  6  1  0
  5  6  1  0
  6  7  2  3
  5  8  1  0
  4 10  1  0
 10 11  2  0
 11 12  1  0
 12 13  2  0
 13 14  1  0
 10 15  1  0
 14 15  2  0
  9 16  2  0
  9 17  1  0
 14 18  1  0
 17 18  2  0
 18 19  1  0
 16 20  1  0
 19 20  2  0
  2 21  1  0
  7 22  1  0
  8 23  1  0
  8 24  1  0
  8 25  1  0
 11 26  1  0
 12 27  1  0
 13 28  1  0
 15 29  1  0
 16 30  1  0
 17 31  1  0
 19 32  1  0
 20 33  1  0
 34 35  1  0
  4 34  1  6
M  END
>  <attachment_point>  (163) 
21

>  <score>  (163) 
<NA>

$$$$
4djw
     RDKit          3D

 52 55  0  0  0  0  0  0  0  0999 V2000
   22.4950   11.8750   22.5810 C   0  0  0  0  0  0  0  0  0  0  0  0
   22.5380    9.4930   22.4640 N   0  0  0  0  0  0  0  0  0  0  0  0
   22.3600   13.0630   22.3480 O   0  0  0  0  0  0  0  0  0  0  0  0
   22.3390   10.6680   21.5610 C   0  0  2  0  0  0  0  0  0  0  0  0
   22.7860   11.3350   23.8120 N   0  0  0  0  0  0  0  0  0  0  0  0
   22.7800    9.9140   23.7010 C   0  0  0  0  0  0  0  0  0  0  0  0
   22.9970    9.1110   24.7490 N   0  0  0  0  0  0  0  0  0  0  0  0
   23.0220   12.1410   25.0180 C   0  0  0  0  0  0  0  0  0  0  0  0
   29.1260    9.8230   21.7090 N   0  0  0  0  0  0  0  0  0  0  0  0
   23.4880   10.6920   20.5300 C   0  0  0  0  0  0  0  0  0  0  0  0
   23.2110   10.7890   19.1730 C   0  0  0  0  0  0  0  0  0  0  0  0
   24.2350   10.8650   18.2430 C   0  0  0  0  0  0  0  0  0  0  0  0
   25.5500   10.8410   18.6560 C   0  0  0  0  0  0  0  0  0  0  0  0
   25.8710   10.7460   20.0070 C   0  0  0  0  0  0  0  0  0  0  0  0
   24.8260   10.6610   20.9430 C   0  0  0  0  0  0  0  0  0  0  0  0
   29.8540   10.9130   21.4510 C   0  0  0  0  0  0  0  0  0  0  0  0
   27.8830    9.7800   21.2080 C   0  0  0  0  0  0  0  0  0  0  0  0
   27.3000   10.8010   20.4650 C   0  0  0  0  0  0  0  0  0  0  0  0
   28.0930   11.9190   20.2200 C   0  0  0  0  0  0  0  0  0  0  0  0
   29.3850   11.9780   20.7130 C   0  0  0  0  0  0  0  0  0  0  0  0
    0.0000    0.0000    0.0000 H   0  0  0  0  0  0  0  0  0  0  0  0
    0.0000    0.0000    0.0000 H   0  0  0  0  0  0  0  0  0  0  0  0
    0.0000    0.0000    0.0000 H   0  0  0  0  0  0  0  0  0  0  0  0
    0.0000    0.0000    0.0000 H   0  0  0  0  0  0  0  0  0  0  0  0
    0.0000    0.0000    0.0000 H   0  0  0  0  0  0  0  0  0  0  0  0
    0.0000    0.0000    0.0000 H   0  0  0  0  0  0  0  0  0  0  0  0
    0.0000    0.0000    0.0000 H   0  0  0  0  0  0  0  0  0  0  0  0
    0.0000    0.0000    0.0000 H   0  0  0  0  0  0  0  0  0  0  0  0
    0.0000    0.0000    0.0000 H   0  0  0  0  0  0  0  0  0  0  0  0
    0.0000    0.0000    0.0000 H   0  0  0  0  0  0  0  0  0  0  0  0
    0.0000    0.0000    0.0000 H   0  0  0  0  0  0  0  0  0  0  0  0
    0.0000    0.0000    0.0000 H   0  0  0  0  0  0  0  0  0  0  0  0
    0.0000    0.0000    0.0000 H   0  0  0  0  0  0  0  0  0  0  0  0
   10.9530    5.2306   10.5715 N   0  0  0  0  0  0  0  0  0  0  0  0
    9.5163    5.1718   10.7353 C   0  0  0  0  0  0  0  0  0  0  0  0
    8.9166    6.5345   10.9911 C   0  0  0  0  0  0  0  0  0  0  0  0
    9.4387    7.1749   12.2010 C   0  0  0  0  0  0  0  0  0  0  0  0
    8.8297    6.9892   13.4358 C   0  0  0  0  0  0  0  0  0  0  0  0
    9.3602    7.6153   14.5486 C   0  0  0  0  0  0  0  0  0  0  0  0
   10.4789    8.4237   14.4833 C   0  0  0  0  0  0  0  0  0  0  0  0
   11.0542    8.5823   13.2373 C   0  0  0  0  0  0  0  0  0  0  0  0
   10.5651    7.9838   12.1109 C   0  0  0  0  0  0  0  0  0  0  0  0
   11.2082    4.3878    9.9732 H   0  0  0  0  0  0  0  0  0  0  0  0
    9.2959    4.4888   11.5743 H   0  0  0  0  0  0  0  0  0  0  0  0
    9.0695    4.7271    9.8235 H   0  0  0  0  0  0  0  0  0  0  0  0
    7.8190    6.4139   11.0396 H   0  0  0  0  0  0  0  0  0  0  0  0
    9.1618    7.1868   10.1242 H   0  0  0  0  0  0  0  0  0  0  0  0
    7.9498    6.3534   13.4873 H   0  0  0  0  0  0  0  0  0  0  0  0
    8.8661    7.4563   15.5114 H   0  0  0  0  0  0  0  0  0  0  0  0
   10.8848    8.9119   15.3782 H   0  0  0  0  0  0  0  0  0  0  0  0
   11.9415    9.2222   13.1791 H   0  0  0  0  0  0  0  0  0  0  0  0
   11.0470    8.1304   11.1323 H   0  0  0  0  0  0  0  0  0  0  0  0
  1  3  2  0
  1  4  1  0
  2  4  1  0
  1  5  1  0
  2  6  1  0
  5  6  1  0
  6  7  2  3
  5  8  1  0
  4 10  1  0
 10 11  2  0
 11 12  1  0
 12 13  2  0
 13 14  1  0
 10 15  1  0
 14 15  2  0
  9 16  2  0
  9 17  1  0
 14 18  1  0
 17 18  2  0
 18 19  1  0
 16 20  1  0
 19 20  2  0
  2 21  1  0
  7 22  1  0
  8 23  1  0
  8 24  1  0
  8 25  1  0
 11 26  1  0
 12 27  1  0
 13 28  1  0
 15 29  1  0
 16 30  1  0
 17 31  1  0
 19 32  1  0
 20 33  1  0
 34 35  1  0
 35 36  1  0
 36 37  1  0
 37 38  2  0
 38 39  1  0
 39 40  2  0
 40 41  1  0
 41 42  2  0
 42 37  1  0
 34 43  1  0
 35 44  1  0
 35 45  1  0
 36 46  1  0
 36 47  1  0
 38 48  1  0
 39 49  1  0
 40 50  1  0
 41 51  1  0
 42 52  1  0
  4 34  1  6
M  END
>  <attachment_point>  (164) 
21

>  <score>  (164) 
<NA>

$$$$
4djw
     RDKit          3D

 53 56  0  0  0  0  0  0  0  0999 V2000
   22.4950   11.8750   22.5810 C   0  0  0  0  0  0  0  0  0  0  0  0
   22.5380    9.4930   22.4640 N   0  0  0  0  0  0  0  0  0  0  0  0
   22.3600   13.0630   22.3480 O   0  0  0  0  0  0  0  0  0  0  0  0
   22.3390   10.6680   21.5610 C   0  0  2  0  0  0  0  0  0  0  0  0
   22.7860   11.3350   23.8120 N   0  0  0  0  0  0  0  0  0  0  0  0
   22.7800    9.9140   23.7010 C   0  0  0  0  0  0  0  0  0  0  0  0
   22.9970    9.1110   24.7490 N   0  0  0  0  0  0  0  0  0  0  0  0
   23.0220   12.1410   25.0180 C   0  0  0  0  0  0  0  0  0  0  0  0
   29.1260    9.8230   21.7090 N   0  0  0  0  0  0  0  0  0  0  0  0
   23.4880   10.6920   20.5300 C   0  0  0  0  0  0  0  0  0  0  0  0
   23.2110   10.7890   19.1730 C   0  0  0  0  0  0  0  0  0  0  0  0
   24.2350   10.8650   18.2430 C   0  0  0  0  0  0  0  0  0  0  0  0
   25.5500   10.8410   18.6560 C   0  0  0  0  0  0  0  0  0  0  0  0
   25.8710   10.7460   20.0070 C   0  0  0  0  0  0  0  0  0  0  0  0
   24.8260   10.6610   20.9430 C   0  0  0  0  0  0  0  0  0  0  0  0
   29.8540   10.9130   21.4510 C   0  0  0  0  0  0  0  0  0  0  0  0
   27.8830    9.7800   21.2080 C   0  0  0  0  0  0  0  0  0  0  0  0
   27.3000   10.8010   20.4650 C   0  0  0  0  0  0  0  0  0  0  0  0
   28.0930   11.9190   20.2200 C   0  0  0  0  0  0  0  0  0  0  0  0
   29.3850   11.9780   20.7130 C   0  0  0  0  0  0  0  0  0  0  0  0
    0.0000    0.0000    0.0000 H   0  0  0  0  0  0  0  0  0  0  0  0
    0.0000    0.0000    0.0000 H   0  0  0  0  0  0  0  0  0  0  0  0
    0.0000    0.0000    0.0000 H   0  0  0  0  0  0  0  0  0  0  0  0
    0.0000    0.0000    0.0000 H   0  0  0  0  0  0  0  0  0  0  0  0
    0.0000    0.0000    0.0000 H   0  0  0  0  0  0  0  0  0  0  0  0
    0.0000    0.0000    0.0000 H   0  0  0  0  0  0  0  0  0  0  0  0
    0.0000    0.0000    0.0000 H   0  0  0  0  0  0  0  0  0  0  0  0
    0.0000    0.0000    0.0000 H   0  0  0  0  0  0  0  0  0  0  0  0
    0.0000    0.0000    0.0000 H   0  0  0  0  0  0  0  0  0  0  0  0
    0.0000    0.0000    0.0000 H   0  0  0  0  0  0  0  0  0  0  0  0
    0.0000    0.0000    0.0000 H   0  0  0  0  0  0  0  0  0  0  0  0
    0.0000    0.0000    0.0000 H   0  0  0  0  0  0  0  0  0  0  0  0
    0.0000    0.0000    0.0000 H   0  0  0  0  0  0  0  0  0  0  0  0
   10.8667    5.1894   10.4883 O   0  0  0  0  0  0  0  0  0  0  0  0
   11.0851    3.8090   10.7087 C   0  0  0  0  0  0  0  0  0  0  0  0
   10.1513    3.0087    9.8097 C   0  0  0  0  0  0  0  0  0  0  0  0
   10.4000    1.6221   10.0598 N   0  0  0  0  0  0  0  0  0  0  0  0
    9.6033    0.7206    9.2943 C   0  0  0  0  0  0  0  0  0  0  0  0
   10.5491   -0.0889    8.4387 C   0  0  0  0  0  0  0  0  0  0  0  0
   11.7775   -0.1151    9.3307 C   0  0  0  0  0  0  0  0  0  0  0  0
   11.7859    1.3440    9.7962 C   0  0  0  0  0  0  0  0  0  0  0  0
   10.8669    3.6404   11.7831 H   0  0  0  0  0  0  0  0  0  0  0  0
   12.1288    3.5731   10.5268 H   0  0  0  0  0  0  0  0  0  0  0  0
   10.5001    3.2335    8.7593 H   0  0  0  0  0  0  0  0  0  0  0  0
    9.1106    3.3247    9.9096 H   0  0  0  0  0  0  0  0  0  0  0  0
    8.8025    1.2044    8.7097 H   0  0  0  0  0  0  0  0  0  0  0  0
    9.1380   -0.0060   10.0178 H   0  0  0  0  0  0  0  0  0  0  0  0
   10.1803   -1.1151    8.2550 H   0  0  0  0  0  0  0  0  0  0  0  0
   10.8302    0.4459    7.5126 H   0  0  0  0  0  0  0  0  0  0  0  0
   12.6953   -0.3562    8.7812 H   0  0  0  0  0  0  0  0  0  0  0  0
   11.6181   -0.7240   10.2351 H   0  0  0  0  0  0  0  0  0  0  0  0
   12.4277    1.5052   10.6608 H   0  0  0  0  0  0  0  0  0  0  0  0
   12.1295    1.9754    8.9333 H   0  0  0  0  0  0  0  0  0  0  0  0
  1  3  2  0
  1  4  1  0
  2  4  1  0
  1  5  1  0
  2  6  1  0
  5  6  1  0
  6  7  2  3
  5  8  1  0
  4 10  1  0
 10 11  2  0
 11 12  1  0
 12 13  2  0
 13 14  1  0
 10 15  1  0
 14 15  2  0
  9 16  2  0
  9 17  1  0
 14 18  1  0
 17 18  2  0
 18 19  1  0
 16 20  1  0
 19 20  2  0
  2 21  1  0
  7 22  1  0
  8 23  1  0
  8 24  1  0
  8 25  1  0
 11 26  1  0
 12 27  1  0
 13 28  1  0
 15 29  1  0
 16 30  1  0
 17 31  1  0
 19 32  1  0
 20 33  1  0
 34 35  1  0
 35 36  1  0
 36 37  1  0
 37 38  1  0
 38 39  1  0
 39 40  1  0
 40 41  1  0
 41 37  1  0
 35 42  1  0
 35 43  1  0
 36 44  1  0
 36 45  1  0
 38 46  1  0
 38 47  1  0
 39 48  1  0
 39 49  1  0
 40 50  1  0
 40 51  1  0
 41 52  1  0
 41 53  1  0
  4 34  1  6
M  END
>  <attachment_point>  (165) 
21

>  <score>  (165) 
<NA>

$$$$
4djw
     RDKit          3D

 44 46  0  0  0  0  0  0  0  0999 V2000
   22.4950   11.8750   22.5810 C   0  0  0  0  0  0  0  0  0  0  0  0
   22.5380    9.4930   22.4640 N   0  0  0  0  0  0  0  0  0  0  0  0
   22.3600   13.0630   22.3480 O   0  0  0  0  0  0  0  0  0  0  0  0
   22.3390   10.6680   21.5610 C   0  0  2  0  0  0  0  0  0  0  0  0
   22.7860   11.3350   23.8120 N   0  0  0  0  0  0  0  0  0  0  0  0
   22.7800    9.9140   23.7010 C   0  0  0  0  0  0  0  0  0  0  0  0
   22.9970    9.1110   24.7490 N   0  0  0  0  0  0  0  0  0  0  0  0
   23.0220   12.1410   25.0180 C   0  0  0  0  0  0  0  0  0  0  0  0
   29.1260    9.8230   21.7090 N   0  0  0  0  0  0  0  0  0  0  0  0
   23.4880   10.6920   20.5300 C   0  0  0  0  0  0  0  0  0  0  0  0
   23.2110   10.7890   19.1730 C   0  0  0  0  0  0  0  0  0  0  0  0
   24.2350   10.8650   18.2430 C   0  0  0  0  0  0  0  0  0  0  0  0
   25.5500   10.8410   18.6560 C   0  0  0  0  0  0  0  0  0  0  0  0
   25.8710   10.7460   20.0070 C   0  0  0  0  0  0  0  0  0  0  0  0
   24.8260   10.6610   20.9430 C   0  0  0  0  0  0  0  0  0  0  0  0
   29.8540   10.9130   21.4510 C   0  0  0  0  0  0  0  0  0  0  0  0
   27.8830    9.7800   21.2080 C   0  0  0  0  0  0  0  0  0  0  0  0
   27.3000   10.8010   20.4650 C   0  0  0  0  0  0  0  0  0  0  0  0
   28.0930   11.9190   20.2200 C   0  0  0  0  0  0  0  0  0  0  0  0
   29.3850   11.9780   20.7130 C   0  0  0  0  0  0  0  0  0  0  0  0
    0.0000    0.0000    0.0000 H   0  0  0  0  0  0  0  0  0  0  0  0
    0.0000    0.0000    0.0000 H   0  0  0  0  0  0  0  0  0  0  0  0
    0.0000    0.0000    0.0000 H   0  0  0  0  0  0  0  0  0  0  0  0
    0.0000    0.0000    0.0000 H   0  0  0  0  0  0  0  0  0  0  0  0
    0.0000    0.0000    0.0000 H   0  0  0  0  0  0  0  0  0  0  0  0
    0.0000    0.0000    0.0000 H   0  0  0  0  0  0  0  0  0  0  0  0
    0.0000    0.0000    0.0000 H   0  0  0  0  0  0  0  0  0  0  0  0
    0.0000    0.0000    0.0000 H   0  0  0  0  0  0  0  0  0  0  0  0
    0.0000    0.0000    0.0000 H   0  0  0  0  0  0  0  0  0  0  0  0
    0.0000    0.0000    0.0000 H   0  0  0  0  0  0  0  0  0  0  0  0
    0.0000    0.0000    0.0000 H   0  0  0  0  0  0  0  0  0  0  0  0
    0.0000    0.0000    0.0000 H   0  0  0  0  0  0  0  0  0  0  0  0
    0.0000    0.0000    0.0000 H   0  0  0  0  0  0  0  0  0  0  0  0
   10.8481    5.1805   10.4702 C   0  0  0  0  0  0  0  0  0  0  0  0
   11.3792    3.8312   10.0548 C   0  0  0  0  0  0  0  0  0  0  0  0
   10.5924    3.1892    9.1404 O   0  0  0  0  0  0  0  0  0  0  0  0
   10.4464    3.9124    7.9622 C   0  0  0  0  0  0  0  0  0  0  0  0
   10.8904    5.9392    9.6925 H   0  0  0  0  0  0  0  0  0  0  0  0
    9.9053    5.1063   11.0181 H   0  0  0  0  0  0  0  0  0  0  0  0
   12.4243    3.8648    9.7170 H   0  0  0  0  0  0  0  0  0  0  0  0
   11.3833    3.2029   10.9886 H   0  0  0  0  0  0  0  0  0  0  0  0
    9.9800    4.8859    8.2015 H   0  0  0  0  0  0  0  0  0  0  0  0
   11.4273    4.0746    7.4665 H   0  0  0  0  0  0  0  0  0  0  0  0
    9.7184    3.3814    7.3023 H   0  0  0  0  0  0  0  0  0  0  0  0
  1  3  2  0
  1  4  1  0
  2  4  1  0
  1  5  1  0
  2  6  1  0
  5  6  1  0
  6  7  2  3
  5  8  1  0
  4 10  1  0
 10 11  2  0
 11 12  1  0
 12 13  2  0
 13 14  1  0
 10 15  1  0
 14 15  2  0
  9 16  2  0
  9 17  1  0
 14 18  1  0
 17 18  2  0
 18 19  1  0
 16 20  1  0
 19 20  2  0
  2 21  1  0
  7 22  1  0
  8 23  1  0
  8 24  1  0
  8 25  1  0
 11 26  1  0
 12 27  1  0
 13 28  1  0
 15 29  1  0
 16 30  1  0
 17 31  1  0
 19 32  1  0
 20 33  1  0
 34 35  1  0
 35 36  1  0
 36 37  1  0
 34 38  1  0
 34 39  1  0
 35 40  1  0
 35 41  1  0
 37 42  1  0
 37 43  1  0
 37 44  1  0
  4 34  1  6
M  END
>  <attachment_point>  (166) 
21

>  <score>  (166) 
<NA>

$$$$
4djw
     RDKit          3D

 52 55  0  0  0  0  0  0  0  0999 V2000
   22.4950   11.8750   22.5810 C   0  0  0  0  0  0  0  0  0  0  0  0
   22.5380    9.4930   22.4640 N   0  0  0  0  0  0  0  0  0  0  0  0
   22.3600   13.0630   22.3480 O   0  0  0  0  0  0  0  0  0  0  0  0
   22.3390   10.6680   21.5610 C   0  0  2  0  0  0  0  0  0  0  0  0
   22.7860   11.3350   23.8120 N   0  0  0  0  0  0  0  0  0  0  0  0
   22.7800    9.9140   23.7010 C   0  0  0  0  0  0  0  0  0  0  0  0
   22.9970    9.1110   24.7490 N   0  0  0  0  0  0  0  0  0  0  0  0
   23.0220   12.1410   25.0180 C   0  0  0  0  0  0  0  0  0  0  0  0
   29.1260    9.8230   21.7090 N   0  0  0  0  0  0  0  0  0  0  0  0
   23.4880   10.6920   20.5300 C   0  0  0  0  0  0  0  0  0  0  0  0
   23.2110   10.7890   19.1730 C   0  0  0  0  0  0  0  0  0  0  0  0
   24.2350   10.8650   18.2430 C   0  0  0  0  0  0  0  0  0  0  0  0
   25.5500   10.8410   18.6560 C   0  0  0  0  0  0  0  0  0  0  0  0
   25.8710   10.7460   20.0070 C   0  0  0  0  0  0  0  0  0  0  0  0
   24.8260   10.6610   20.9430 C   0  0  0  0  0  0  0  0  0  0  0  0
   29.8540   10.9130   21.4510 C   0  0  0  0  0  0  0  0  0  0  0  0
   27.8830    9.7800   21.2080 C   0  0  0  0  0  0  0  0  0  0  0  0
   27.3000   10.8010   20.4650 C   0  0  0  0  0  0  0  0  0  0  0  0
   28.0930   11.9190   20.2200 C   0  0  0  0  0  0  0  0  0  0  0  0
   29.3850   11.9780   20.7130 C   0  0  0  0  0  0  0  0  0  0  0  0
    0.0000    0.0000    0.0000 H   0  0  0  0  0  0  0  0  0  0  0  0
    0.0000    0.0000    0.0000 H   0  0  0  0  0  0  0  0  0  0  0  0
    0.0000    0.0000    0.0000 H   0  0  0  0  0  0  0  0  0  0  0  0
    0.0000    0.0000    0.0000 H   0  0  0  0  0  0  0  0  0  0  0  0
    0.0000    0.0000    0.0000 H   0  0  0  0  0  0  0  0  0  0  0  0
    0.0000    0.0000    0.0000 H   0  0  0  0  0  0  0  0  0  0  0  0
    0.0000    0.0000    0.0000 H   0  0  0  0  0  0  0  0  0  0  0  0
    0.0000    0.0000    0.0000 H   0  0  0  0  0  0  0  0  0  0  0  0
    0.0000    0.0000    0.0000 H   0  0  0  0  0  0  0  0  0  0  0  0
    0.0000    0.0000    0.0000 H   0  0  0  0  0  0  0  0  0  0  0  0
    0.0000    0.0000    0.0000 H   0  0  0  0  0  0  0  0  0  0  0  0
    0.0000    0.0000    0.0000 H   0  0  0  0  0  0  0  0  0  0  0  0
    0.0000    0.0000    0.0000 H   0  0  0  0  0  0  0  0  0  0  0  0
   10.8869    5.1990   10.5077 C   0  0  0  0  0  0  0  0  0  0  0  0
   10.2421    4.0093   10.7727 C   0  0  0  0  0  0  0  0  0  0  0  0
    9.3026    3.5096    9.9181 C   0  0  0  0  0  0  0  0  0  0  0  0
    8.9709    4.2154    8.7283 C   0  0  0  0  0  0  0  0  0  0  0  0
    8.1137    3.8071    7.9011 O   0  0  0  0  0  0  0  0  0  0  0  0
    7.2382    3.3899    7.0561 C   0  0  0  0  0  0  0  0  0  0  0  0
    9.6608    5.4391    8.4943 C   0  0  0  0  0  0  0  0  0  0  0  0
    9.3159    6.0978    7.3313 O   0  0  0  0  0  0  0  0  0  0  0  0
    9.9399    7.3148    7.0020 C   0  0  0  0  0  0  0  0  0  0  0  0
   10.6003    5.9190    9.3696 C   0  0  0  0  0  0  0  0  0  0  0  0
   10.4889    3.4740   11.6685 H   0  0  0  0  0  0  0  0  0  0  0  0
    8.7624    2.5749   10.0771 H   0  0  0  0  0  0  0  0  0  0  0  0
    6.6995    2.4124    7.2564 H   0  0  0  0  0  0  0  0  0  0  0  0
    6.3475    4.0783    6.8359 H   0  0  0  0  0  0  0  0  0  0  0  0
    7.6253    3.2236    5.9890 H   0  0  0  0  0  0  0  0  0  0  0  0
    9.5008    8.1810    7.5548 H   0  0  0  0  0  0  0  0  0  0  0  0
    9.8188    7.5663    5.9251 H   0  0  0  0  0  0  0  0  0  0  0  0
   11.0285    7.3308    7.1928 H   0  0  0  0  0  0  0  0  0  0  0  0
   11.1065    6.8697    9.1483 H   0  0  0  0  0  0  0  0  0  0  0  0
  1  3  2  0
  1  4  1  0
  2  4  1  0
  1  5  1  0
  2  6  1  0
  5  6  1  0
  6  7  2  3
  5  8  1  0
  4 10  1  6
 10 11  2  0
 11 12  1  0
 12 13  2  0
 13 14  1  0
 10 15  1  0
 14 15  2  0
  9 16  2  0
  9 17  1  0
 14 18  1  0
 17 18  2  0
 18 19  1  0
 16 20  1  0
 19 20  2  0
  2 21  1  0
  7 22  1  0
  8 23  1  0
  8 24  1  0
  8 25  1  0
 11 26  1  0
 12 27  1  0
 13 28  1  0
 15 29  1  0
 16 30  1  0
 17 31  1  0
 19 32  1  0
 20 33  1  0
 34 35  2  0
 35 36  1  0
 36 37  2  0
 37 38  1  0
 38 39  1  0
 37 40  1  0
 40 41  1  0
 41 42  1  0
 40 43  2  0
 43 34  1  0
 35 44  1  0
 36 45  1  0
 39 46  1  0
 39 47  1  0
 39 48  1  0
 42 49  1  0
 42 50  1  0
 42 51  1  0
 43 52  1  0
  4 34  1  0
M  END
>  <attachment_point>  (167) 
21

>  <score>  (167) 
<NA>

$$$$
4djw
     RDKit          3D

 41 43  0  0  0  0  0  0  0  0999 V2000
   22.4950   11.8750   22.5810 C   0  0  0  0  0  0  0  0  0  0  0  0
   22.5380    9.4930   22.4640 N   0  0  0  0  0  0  0  0  0  0  0  0
   22.3600   13.0630   22.3480 O   0  0  0  0  0  0  0  0  0  0  0  0
   22.3390   10.6680   21.5610 C   0  0  2  0  0  0  0  0  0  0  0  0
   22.7860   11.3350   23.8120 N   0  0  0  0  0  0  0  0  0  0  0  0
   22.7800    9.9140   23.7010 C   0  0  0  0  0  0  0  0  0  0  0  0
   22.9970    9.1110   24.7490 N   0  0  0  0  0  0  0  0  0  0  0  0
   23.0220   12.1410   25.0180 C   0  0  0  0  0  0  0  0  0  0  0  0
   29.1260    9.8230   21.7090 N   0  0  0  0  0  0  0  0  0  0  0  0
   23.4880   10.6920   20.5300 C   0  0  0  0  0  0  0  0  0  0  0  0
   23.2110   10.7890   19.1730 C   0  0  0  0  0  0  0  0  0  0  0  0
   24.2350   10.8650   18.2430 C   0  0  0  0  0  0  0  0  0  0  0  0
   25.5500   10.8410   18.6560 C   0  0  0  0  0  0  0  0  0  0  0  0
   25.8710   10.7460   20.0070 C   0  0  0  0  0  0  0  0  0  0  0  0
   24.8260   10.6610   20.9430 C   0  0  0  0  0  0  0  0  0  0  0  0
   29.8540   10.9130   21.4510 C   0  0  0  0  0  0  0  0  0  0  0  0
   27.8830    9.7800   21.2080 C   0  0  0  0  0  0  0  0  0  0  0  0
   27.3000   10.8010   20.4650 C   0  0  0  0  0  0  0  0  0  0  0  0
   28.0930   11.9190   20.2200 C   0  0  0  0  0  0  0  0  0  0  0  0
   29.3850   11.9780   20.7130 C   0  0  0  0  0  0  0  0  0  0  0  0
    0.0000    0.0000    0.0000 H   0  0  0  0  0  0  0  0  0  0  0  0
    0.0000    0.0000    0.0000 H   0  0  0  0  0  0  0  0  0  0  0  0
    0.0000    0.0000    0.0000 H   0  0  0  0  0  0  0  0  0  0  0  0
    0.0000    0.0000    0.0000 H   0  0  0  0  0  0  0  0  0  0  0  0
    0.0000    0.0000    0.0000 H   0  0  0  0  0  0  0  0  0  0  0  0
    0.0000    0.0000    0.0000 H   0  0  0  0  0  0  0  0  0  0  0  0
    0.0000    0.0000    0.0000 H   0  0  0  0  0  0  0  0  0  0  0  0
    0.0000    0.0000    0.0000 H   0  0  0  0  0  0  0  0  0  0  0  0
    0.0000    0.0000    0.0000 H   0  0  0  0  0  0  0  0  0  0  0  0
    0.0000    0.0000    0.0000 H   0  0  0  0  0  0  0  0  0  0  0  0
    0.0000    0.0000    0.0000 H   0  0  0  0  0  0  0  0  0  0  0  0
    0.0000    0.0000    0.0000 H   0  0  0  0  0  0  0  0  0  0  0  0
    0.0000    0.0000    0.0000 H   0  0  0  0  0  0  0  0  0  0  0  0
   10.8771    5.1944   10.4983 C   0  0  2  0  0  0  0  0  0  0  0  0
   11.5163    4.7754    9.1827 C   0  0  0  0  0  0  0  0  0  0  0  0
    9.8932    6.1260   10.2825 O   0  0  0  0  0  0  0  0  0  0  0  0
   10.3821    4.2652   10.8937 H   0  0  0  0  0  0  0  0  0  0  0  0
   11.7363    5.6943    8.5954 H   0  0  0  0  0  0  0  0  0  0  0  0
   12.4082    4.1704    9.3418 H   0  0  0  0  0  0  0  0  0  0  0  0
   10.7110    4.2205    8.6274 H   0  0  0  0  0  0  0  0  0  0  0  0
    9.8127    6.4502    9.3653 H   0  0  0  0  0  0  0  0  0  0  0  0
  1  3  2  0
  1  4  1  0
  2  4  1  0
  1  5  1  0
  2  6  1  0
  5  6  1  0
  6  7  2  3
  5  8  1  0
  4 10  1  6
 10 11  2  0
 11 12  1  0
 12 13  2  0
 13 14  1  0
 10 15  1  0
 14 15  2  0
  9 16  2  0
  9 17  1  0
 14 18  1  0
 17 18  2  0
 18 19  1  0
 16 20  1  0
 19 20  2  0
  2 21  1  0
  7 22  1  0
  8 23  1  0
  8 24  1  0
  8 25  1  0
 11 26  1  0
 12 27  1  0
 13 28  1  0
 15 29  1  0
 16 30  1  0
 17 31  1  0
 19 32  1  0
 20 33  1  0
 34 35  1  0
 34 36  1  0
 34 37  1  6
 35 38  1  0
 35 39  1  0
 35 40  1  0
 36 41  1  0
  4 34  1  0
M  END
>  <attachment_point>  (168) 
21

>  <score>  (168) 
<NA>

$$$$
4djw
     RDKit          3D

 46 49  0  0  0  0  0  0  0  0999 V2000
   22.4950   11.8750   22.5810 C   0  0  0  0  0  0  0  0  0  0  0  0
   22.5380    9.4930   22.4640 N   0  0  0  0  0  0  0  0  0  0  0  0
   22.3600   13.0630   22.3480 O   0  0  0  0  0  0  0  0  0  0  0  0
   22.3390   10.6680   21.5610 C   0  0  2  0  0  0  0  0  0  0  0  0
   22.7860   11.3350   23.8120 N   0  0  0  0  0  0  0  0  0  0  0  0
   22.7800    9.9140   23.7010 C   0  0  0  0  0  0  0  0  0  0  0  0
   22.9970    9.1110   24.7490 N   0  0  0  0  0  0  0  0  0  0  0  0
   23.0220   12.1410   25.0180 C   0  0  0  0  0  0  0  0  0  0  0  0
   29.1260    9.8230   21.7090 N   0  0  0  0  0  0  0  0  0  0  0  0
   23.4880   10.6920   20.5300 C   0  0  0  0  0  0  0  0  0  0  0  0
   23.2110   10.7890   19.1730 C   0  0  0  0  0  0  0  0  0  0  0  0
   24.2350   10.8650   18.2430 C   0  0  0  0  0  0  0  0  0  0  0  0
   25.5500   10.8410   18.6560 C   0  0  0  0  0  0  0  0  0  0  0  0
   25.8710   10.7460   20.0070 C   0  0  0  0  0  0  0  0  0  0  0  0
   24.8260   10.6610   20.9430 C   0  0  0  0  0  0  0  0  0  0  0  0
   29.8540   10.9130   21.4510 C   0  0  0  0  0  0  0  0  0  0  0  0
   27.8830    9.7800   21.2080 C   0  0  0  0  0  0  0  0  0  0  0  0
   27.3000   10.8010   20.4650 C   0  0  0  0  0  0  0  0  0  0  0  0
   28.0930   11.9190   20.2200 C   0  0  0  0  0  0  0  0  0  0  0  0
   29.3850   11.9780   20.7130 C   0  0  0  0  0  0  0  0  0  0  0  0
    0.0000    0.0000    0.0000 H   0  0  0  0  0  0  0  0  0  0  0  0
    0.0000    0.0000    0.0000 H   0  0  0  0  0  0  0  0  0  0  0  0
    0.0000    0.0000    0.0000 H   0  0  0  0  0  0  0  0  0  0  0  0
    0.0000    0.0000    0.0000 H   0  0  0  0  0  0  0  0  0  0  0  0
    0.0000    0.0000    0.0000 H   0  0  0  0  0  0  0  0  0  0  0  0
    0.0000    0.0000    0.0000 H   0  0  0  0  0  0  0  0  0  0  0  0
    0.0000    0.0000    0.0000 H   0  0  0  0  0  0  0  0  0  0  0  0
    0.0000    0.0000    0.0000 H   0  0  0  0  0  0  0  0  0  0  0  0
    0.0000    0.0000    0.0000 H   0  0  0  0  0  0  0  0  0  0  0  0
    0.0000    0.0000    0.0000 H   0  0  0  0  0  0  0  0  0  0  0  0
    0.0000    0.0000    0.0000 H   0  0  0  0  0  0  0  0  0  0  0  0
    0.0000    0.0000    0.0000 H   0  0  0  0  0  0  0  0  0  0  0  0
    0.0000    0.0000    0.0000 H   0  0  0  0  0  0  0  0  0  0  0  0
   10.8827    5.1971   10.5037 C   0  0  0  0  0  0  0  0  0  0  0  0
   11.1266    5.5824    9.1801 C   0  0  0  0  0  0  0  0  0  0  0  0
   10.2631    5.1978    8.1860 C   0  0  0  0  0  0  0  0  0  0  0  0
    9.1492    4.4336    8.4567 C   0  0  0  0  0  0  0  0  0  0  0  0
    8.2429    4.0244    7.4452 N   0  0  0  0  0  4  0  0  0  0  0  0
    8.4238    4.3419    6.2795 O   0  0  0  0  0  0  0  0  0  0  0  0
    7.1707    3.2739    7.7931 O   0  0  0  0  0  1  0  0  0  0  0  0
    8.9334    4.0643    9.7924 C   0  0  0  0  0  0  0  0  0  0  0  0
    9.7815    4.4367   10.8000 C   0  0  0  0  0  0  0  0  0  0  0  0
   11.9849    6.1824    8.9063 H   0  0  0  0  0  0  0  0  0  0  0  0
   10.4125    5.4747    7.1381 H   0  0  0  0  0  0  0  0  0  0  0  0
    8.0469    3.4605    9.9833 H   0  0  0  0  0  0  0  0  0  0  0  0
    9.6084    4.1505   11.8133 H   0  0  0  0  0  0  0  0  0  0  0  0
  1  3  2  0
  1  4  1  0
  2  4  1  0
  1  5  1  0
  2  6  1  0
  5  6  1  0
  6  7  2  3
  5  8  1  0
  4 10  1  6
 10 11  2  0
 11 12  1  0
 12 13  2  0
 13 14  1  0
 10 15  1  0
 14 15  2  0
  9 16  2  0
  9 17  1  0
 14 18  1  0
 17 18  2  0
 18 19  1  0
 16 20  1  0
 19 20  2  0
  2 21  1  0
  7 22  1  0
  8 23  1  0
  8 24  1  0
  8 25  1  0
 11 26  1  0
 12 27  1  0
 13 28  1  0
 15 29  1  0
 16 30  1  0
 17 31  1  0
 19 32  1  0
 20 33  1  0
 34 35  2  0
 35 36  1  0
 36 37  2  0
 37 38  1  0
 38 39  2  0
 38 40  1  0
 37 41  1  0
 41 42  2  0
 42 34  1  0
 35 43  1  0
 36 44  1  0
 41 45  1  0
 42 46  1  0
  4 34  1  0
M  CHG  2  38   1  40  -1
M  END
>  <attachment_point>  (169) 
21

>  <score>  (169) 
<NA>

$$$$
4djw
     RDKit          3D

 46 49  0  0  0  0  0  0  0  0999 V2000
   22.4950   11.8750   22.5810 C   0  0  0  0  0  0  0  0  0  0  0  0
   22.5380    9.4930   22.4640 N   0  0  0  0  0  0  0  0  0  0  0  0
   22.3600   13.0630   22.3480 O   0  0  0  0  0  0  0  0  0  0  0  0
   22.3390   10.6680   21.5610 C   0  0  2  0  0  0  0  0  0  0  0  0
   22.7860   11.3350   23.8120 N   0  0  0  0  0  0  0  0  0  0  0  0
   22.7800    9.9140   23.7010 C   0  0  0  0  0  0  0  0  0  0  0  0
   22.9970    9.1110   24.7490 N   0  0  0  0  0  0  0  0  0  0  0  0
   23.0220   12.1410   25.0180 C   0  0  0  0  0  0  0  0  0  0  0  0
   29.1260    9.8230   21.7090 N   0  0  0  0  0  0  0  0  0  0  0  0
   23.4880   10.6920   20.5300 C   0  0  0  0  0  0  0  0  0  0  0  0
   23.2110   10.7890   19.1730 C   0  0  0  0  0  0  0  0  0  0  0  0
   24.2350   10.8650   18.2430 C   0  0  0  0  0  0  0  0  0  0  0  0
   25.5500   10.8410   18.6560 C   0  0  0  0  0  0  0  0  0  0  0  0
   25.8710   10.7460   20.0070 C   0  0  0  0  0  0  0  0  0  0  0  0
   24.8260   10.6610   20.9430 C   0  0  0  0  0  0  0  0  0  0  0  0
   29.8540   10.9130   21.4510 C   0  0  0  0  0  0  0  0  0  0  0  0
   27.8830    9.7800   21.2080 C   0  0  0  0  0  0  0  0  0  0  0  0
   27.3000   10.8010   20.4650 C   0  0  0  0  0  0  0  0  0  0  0  0
   28.0930   11.9190   20.2200 C   0  0  0  0  0  0  0  0  0  0  0  0
   29.3850   11.9780   20.7130 C   0  0  0  0  0  0  0  0  0  0  0  0
    0.0000    0.0000    0.0000 H   0  0  0  0  0  0  0  0  0  0  0  0
    0.0000    0.0000    0.0000 H   0  0  0  0  0  0  0  0  0  0  0  0
    0.0000    0.0000    0.0000 H   0  0  0  0  0  0  0  0  0  0  0  0
    0.0000    0.0000    0.0000 H   0  0  0  0  0  0  0  0  0  0  0  0
    0.0000    0.0000    0.0000 H   0  0  0  0  0  0  0  0  0  0  0  0
    0.0000    0.0000    0.0000 H   0  0  0  0  0  0  0  0  0  0  0  0
    0.0000    0.0000    0.0000 H   0  0  0  0  0  0  0  0  0  0  0  0
    0.0000    0.0000    0.0000 H   0  0  0  0  0  0  0  0  0  0  0  0
    0.0000    0.0000    0.0000 H   0  0  0  0  0  0  0  0  0  0  0  0
    0.0000    0.0000    0.0000 H   0  0  0  0  0  0  0  0  0  0  0  0
    0.0000    0.0000    0.0000 H   0  0  0  0  0  0  0  0  0  0  0  0
    0.0000    0.0000    0.0000 H   0  0  0  0  0  0  0  0  0  0  0  0
    0.0000    0.0000    0.0000 H   0  0  0  0  0  0  0  0  0  0  0  0
   10.8615    5.1869   10.4833 C   0  0  0  0  0  0  0  0  0  0  0  0
   10.2791    6.0640    9.5973 C   0  0  0  0  0  0  0  0  0  0  0  0
    9.3484    5.5546    8.7174 C   0  0  0  0  0  0  0  0  0  0  0  0
    9.0114    4.2135    8.7229 C   0  0  0  0  0  0  0  0  0  0  0  0
    9.5994    3.3391    9.6143 C   0  0  0  0  0  0  0  0  0  0  0  0
    9.2681    1.9494    9.6398 N   0  0  0  0  0  4  0  0  0  0  0  0
    9.8201    1.2093   10.4538 O   0  0  0  0  0  0  0  0  0  0  0  0
    8.3262    1.5020    8.7299 O   0  0  0  0  0  1  0  0  0  0  0  0
   10.5380    3.8482   10.5030 C   0  0  0  0  0  0  0  0  0  0  0  0
   10.5367    7.1319    9.5810 H   0  0  0  0  0  0  0  0  0  0  0  0
    8.8789    6.2394    8.0093 H   0  0  0  0  0  0  0  0  0  0  0  0
    8.2641    3.8428    8.0056 H   0  0  0  0  0  0  0  0  0  0  0  0
   10.9855    3.1581   11.1882 H   0  0  0  0  0  0  0  0  0  0  0  0
  1  3  2  0
  1  4  1  0
  2  4  1  0
  1  5  1  0
  2  6  1  0
  5  6  1  0
  6  7  2  3
  5  8  1  0
  4 10  1  6
 10 11  2  0
 11 12  1  0
 12 13  2  0
 13 14  1  0
 10 15  1  0
 14 15  2  0
  9 16  2  0
  9 17  1  0
 14 18  1  0
 17 18  2  0
 18 19  1  0
 16 20  1  0
 19 20  2  0
  2 21  1  0
  7 22  1  0
  8 23  1  0
  8 24  1  0
  8 25  1  0
 11 26  1  0
 12 27  1  0
 13 28  1  0
 15 29  1  0
 16 30  1  0
 17 31  1  0
 19 32  1  0
 20 33  1  0
 34 35  2  0
 35 36  1  0
 36 37  2  0
 37 38  1  0
 38 39  1  0
 39 40  2  0
 39 41  1  0
 38 42  2  0
 42 34  1  0
 35 43  1  0
 36 44  1  0
 37 45  1  0
 42 46  1  0
  4 34  1  0
M  CHG  2  39   1  41  -1
M  END
>  <attachment_point>  (170) 
21

>  <score>  (170) 
<NA>

$$$$
4djw
     RDKit          3D

 46 49  0  0  0  0  0  0  0  0999 V2000
   22.4950   11.8750   22.5810 C   0  0  0  0  0  0  0  0  0  0  0  0
   22.5380    9.4930   22.4640 N   0  0  0  0  0  0  0  0  0  0  0  0
   22.3600   13.0630   22.3480 O   0  0  0  0  0  0  0  0  0  0  0  0
   22.3390   10.6680   21.5610 C   0  0  2  0  0  0  0  0  0  0  0  0
   22.7860   11.3350   23.8120 N   0  0  0  0  0  0  0  0  0  0  0  0
   22.7800    9.9140   23.7010 C   0  0  0  0  0  0  0  0  0  0  0  0
   22.9970    9.1110   24.7490 N   0  0  0  0  0  0  0  0  0  0  0  0
   23.0220   12.1410   25.0180 C   0  0  0  0  0  0  0  0  0  0  0  0
   29.1260    9.8230   21.7090 N   0  0  0  0  0  0  0  0  0  0  0  0
   23.4880   10.6920   20.5300 C   0  0  0  0  0  0  0  0  0  0  0  0
   23.2110   10.7890   19.1730 C   0  0  0  0  0  0  0  0  0  0  0  0
   24.2350   10.8650   18.2430 C   0  0  0  0  0  0  0  0  0  0  0  0
   25.5500   10.8410   18.6560 C   0  0  0  0  0  0  0  0  0  0  0  0
   25.8710   10.7460   20.0070 C   0  0  0  0  0  0  0  0  0  0  0  0
   24.8260   10.6610   20.9430 C   0  0  0  0  0  0  0  0  0  0  0  0
   29.8540   10.9130   21.4510 C   0  0  0  0  0  0  0  0  0  0  0  0
   27.8830    9.7800   21.2080 C   0  0  0  0  0  0  0  0  0  0  0  0
   27.3000   10.8010   20.4650 C   0  0  0  0  0  0  0  0  0  0  0  0
   28.0930   11.9190   20.2200 C   0  0  0  0  0  0  0  0  0  0  0  0
   29.3850   11.9780   20.7130 C   0  0  0  0  0  0  0  0  0  0  0  0
    0.0000    0.0000    0.0000 H   0  0  0  0  0  0  0  0  0  0  0  0
    0.0000    0.0000    0.0000 H   0  0  0  0  0  0  0  0  0  0  0  0
    0.0000    0.0000    0.0000 H   0  0  0  0  0  0  0  0  0  0  0  0
    0.0000    0.0000    0.0000 H   0  0  0  0  0  0  0  0  0  0  0  0
    0.0000    0.0000    0.0000 H   0  0  0  0  0  0  0  0  0  0  0  0
    0.0000    0.0000    0.0000 H   0  0  0  0  0  0  0  0  0  0  0  0
    0.0000    0.0000    0.0000 H   0  0  0  0  0  0  0  0  0  0  0  0
    0.0000    0.0000    0.0000 H   0  0  0  0  0  0  0  0  0  0  0  0
    0.0000    0.0000    0.0000 H   0  0  0  0  0  0  0  0  0  0  0  0
    0.0000    0.0000    0.0000 H   0  0  0  0  0  0  0  0  0  0  0  0
    0.0000    0.0000    0.0000 H   0  0  0  0  0  0  0  0  0  0  0  0
    0.0000    0.0000    0.0000 H   0  0  0  0  0  0  0  0  0  0  0  0
    0.0000    0.0000    0.0000 H   0  0  0  0  0  0  0  0  0  0  0  0
   10.7549    5.1360   10.3804 C   0  0  0  0  0  0  0  0  0  0  0  0
    9.7475    4.6768    9.4359 C   0  0  0  0  0  0  0  0  0  0  0  0
    8.9787    4.3451    8.7336 C   0  0  0  0  0  0  0  0  0  0  0  0
    7.5604    4.0948    9.1695 C   0  0  0  0  0  0  0  0  0  0  0  0
    6.7822    3.7878    8.1619 C   0  0  0  0  0  0  0  0  0  0  0  0
    6.8518    3.6256    6.8498 C   0  0  0  0  0  0  0  0  0  0  0  0
    8.1951    3.8434    6.3831 C   0  0  0  0  0  0  0  0  0  0  0  0
    9.1911    4.1761    7.2802 C   0  0  0  0  0  0  0  0  0  0  0  0
    7.4257    4.1443   10.2271 H   0  0  0  0  0  0  0  0  0  0  0  0
    5.6417    3.5953    8.5386 H   0  0  0  0  0  0  0  0  0  0  0  0
    6.1654    3.4023    6.1300 H   0  0  0  0  0  0  0  0  0  0  0  0
    8.4582    3.8401    5.3462 H   0  0  0  0  0  0  0  0  0  0  0  0
   10.2228    4.2408    7.0244 H   0  0  0  0  0  0  0  0  0  0  0  0
  1  3  2  0
  1  4  1  0
  2  4  1  0
  1  5  1  0
  2  6  1  0
  5  6  1  0
  6  7  2  3
  5  8  1  0
  4 10  1  0
 10 11  2  0
 11 12  1  0
 12 13  2  0
 13 14  1  0
 10 15  1  0
 14 15  2  0
  9 16  2  0
  9 17  1  0
 14 18  1  0
 17 18  2  0
 18 19  1  0
 16 20  1  0
 19 20  2  0
  2 21  1  0
  7 22  1  0
  8 23  1  0
  8 24  1  0
  8 25  1  0
 11 26  1  0
 12 27  1  0
 13 28  1  0
 15 29  1  0
 16 30  1  0
 17 31  1  0
 19 32  1  0
 20 33  1  0
 34 35  3  0
 35 36  1  0
 36 37  2  0
 37 38  1  0
 38 39  2  0
 39 40  1  0
 40 41  2  0
 41 36  1  0
 37 42  1  0
 38 43  1  0
 39 44  1  0
 40 45  1  0
 41 46  1  0
  4 34  1  6
M  END
>  <attachment_point>  (171) 
21

>  <score>  (171) 
<NA>

$$$$
4djw
     RDKit          3D

 47 50  0  0  0  0  0  0  0  0999 V2000
   22.4950   11.8750   22.5810 C   0  0  0  0  0  0  0  0  0  0  0  0
   22.5380    9.4930   22.4640 N   0  0  0  0  0  0  0  0  0  0  0  0
   22.3600   13.0630   22.3480 O   0  0  0  0  0  0  0  0  0  0  0  0
   22.3390   10.6680   21.5610 C   0  0  2  0  0  0  0  0  0  0  0  0
   22.7860   11.3350   23.8120 N   0  0  0  0  0  0  0  0  0  0  0  0
   22.7800    9.9140   23.7010 C   0  0  0  0  0  0  0  0  0  0  0  0
   22.9970    9.1110   24.7490 N   0  0  0  0  0  0  0  0  0  0  0  0
   23.0220   12.1410   25.0180 C   0  0  0  0  0  0  0  0  0  0  0  0
   29.1260    9.8230   21.7090 N   0  0  0  0  0  0  0  0  0  0  0  0
   23.4880   10.6920   20.5300 C   0  0  0  0  0  0  0  0  0  0  0  0
   23.2110   10.7890   19.1730 C   0  0  0  0  0  0  0  0  0  0  0  0
   24.2350   10.8650   18.2430 C   0  0  0  0  0  0  0  0  0  0  0  0
   25.5500   10.8410   18.6560 C   0  0  0  0  0  0  0  0  0  0  0  0
   25.8710   10.7460   20.0070 C   0  0  0  0  0  0  0  0  0  0  0  0
   24.8260   10.6610   20.9430 C   0  0  0  0  0  0  0  0  0  0  0  0
   29.8540   10.9130   21.4510 C   0  0  0  0  0  0  0  0  0  0  0  0
   27.8830    9.7800   21.2080 C   0  0  0  0  0  0  0  0  0  0  0  0
   27.3000   10.8010   20.4650 C   0  0  0  0  0  0  0  0  0  0  0  0
   28.0930   11.9190   20.2200 C   0  0  0  0  0  0  0  0  0  0  0  0
   29.3850   11.9780   20.7130 C   0  0  0  0  0  0  0  0  0  0  0  0
    0.0000    0.0000    0.0000 H   0  0  0  0  0  0  0  0  0  0  0  0
    0.0000    0.0000    0.0000 H   0  0  0  0  0  0  0  0  0  0  0  0
    0.0000    0.0000    0.0000 H   0  0  0  0  0  0  0  0  0  0  0  0
    0.0000    0.0000    0.0000 H   0  0  0  0  0  0  0  0  0  0  0  0
    0.0000    0.0000    0.0000 H   0  0  0  0  0  0  0  0  0  0  0  0
    0.0000    0.0000    0.0000 H   0  0  0  0  0  0  0  0  0  0  0  0
    0.0000    0.0000    0.0000 H   0  0  0  0  0  0  0  0  0  0  0  0
    0.0000    0.0000    0.0000 H   0  0  0  0  0  0  0  0  0  0  0  0
    0.0000    0.0000    0.0000 H   0  0  0  0  0  0  0  0  0  0  0  0
    0.0000    0.0000    0.0000 H   0  0  0  0  0  0  0  0  0  0  0  0
    0.0000    0.0000    0.0000 H   0  0  0  0  0  0  0  0  0  0  0  0
    0.0000    0.0000    0.0000 H   0  0  0  0  0  0  0  0  0  0  0  0
    0.0000    0.0000    0.0000 H   0  0  0  0  0  0  0  0  0  0  0  0
   10.8021    5.1585   10.4258 C   0  0  0  0  0  0  0  0  0  0  0  0
    9.7972    4.7408   10.8970 O   0  0  0  0  0  0  0  0  0  0  0  0
   11.2738    5.3082    9.1301 N   0  0  0  0  0  0  0  0  0  0  0  0
   10.4333    4.8940    8.0246 C   0  0  0  0  0  0  0  0  0  0  0  0
    9.5591    5.7978    7.4570 C   0  0  0  0  0  0  0  0  0  0  0  0
    8.7474    5.4030    6.3917 C   0  0  0  0  0  0  0  0  0  0  0  0
    8.8432    4.1076    5.9318 C   0  0  0  0  0  0  0  0  0  0  0  0
    9.7024    3.2243    6.4917 N   0  0  0  0  0  0  0  0  0  0  0  0
   10.4877    3.6216    7.5292 C   0  0  0  0  0  0  0  0  0  0  0  0
   12.2105    5.7088    8.9527 H   0  0  0  0  0  0  0  0  0  0  0  0
    9.5346    6.7914    7.8635 H   0  0  0  0  0  0  0  0  0  0  0  0
    8.0602    6.1288    5.9521 H   0  0  0  0  0  0  0  0  0  0  0  0
    8.1929    3.8299    5.0951 H   0  0  0  0  0  0  0  0  0  0  0  0
   11.1934    2.9307    8.0041 H   0  0  0  0  0  0  0  0  0  0  0  0
  1  3  2  0
  1  4  1  0
  2  4  1  0
  1  5  1  0
  2  6  1  0
  5  6  1  0
  6  7  2  3
  5  8  1  0
  4 10  1  0
 10 11  2  0
 11 12  1  0
 12 13  2  0
 13 14  1  0
 10 15  1  0
 14 15  2  0
  9 16  2  0
  9 17  1  0
 14 18  1  0
 17 18  2  0
 18 19  1  0
 16 20  1  0
 19 20  2  0
  2 21  1  0
  7 22  1  0
  8 23  1  0
  8 24  1  0
  8 25  1  0
 11 26  1  0
 12 27  1  0
 13 28  1  0
 15 29  1  0
 16 30  1  0
 17 31  1  0
 19 32  1  0
 20 33  1  0
 34 35  2  0
 34 36  1  0
 36 37  1  0
 37 38  2  0
 38 39  1  0
 39 40  2  0
 40 41  1  0
 41 42  2  0
 42 37  1  0
 36 43  1  0
 38 44  1  0
 39 45  1  0
 40 46  1  0
 42 47  1  0
  4 34  1  6
M  END
>  <attachment_point>  (172) 
21

>  <score>  (172) 
<NA>

$$$$
4djw
     RDKit          3D

 56 59  0  0  0  0  0  0  0  0999 V2000
   22.4950   11.8750   22.5810 C   0  0  0  0  0  0  0  0  0  0  0  0
   22.5380    9.4930   22.4640 N   0  0  0  0  0  0  0  0  0  0  0  0
   22.3600   13.0630   22.3480 O   0  0  0  0  0  0  0  0  0  0  0  0
   22.3390   10.6680   21.5610 C   0  0  2  0  0  0  0  0  0  0  0  0
   22.7860   11.3350   23.8120 N   0  0  0  0  0  0  0  0  0  0  0  0
   22.7800    9.9140   23.7010 C   0  0  0  0  0  0  0  0  0  0  0  0
   22.9970    9.1110   24.7490 N   0  0  0  0  0  0  0  0  0  0  0  0
   23.0220   12.1410   25.0180 C   0  0  0  0  0  0  0  0  0  0  0  0
   29.1260    9.8230   21.7090 N   0  0  0  0  0  0  0  0  0  0  0  0
   23.4880   10.6920   20.5300 C   0  0  0  0  0  0  0  0  0  0  0  0
   23.2110   10.7890   19.1730 C   0  0  0  0  0  0  0  0  0  0  0  0
   24.2350   10.8650   18.2430 C   0  0  0  0  0  0  0  0  0  0  0  0
   25.5500   10.8410   18.6560 C   0  0  0  0  0  0  0  0  0  0  0  0
   25.8710   10.7460   20.0070 C   0  0  0  0  0  0  0  0  0  0  0  0
   24.8260   10.6610   20.9430 C   0  0  0  0  0  0  0  0  0  0  0  0
   29.8540   10.9130   21.4510 C   0  0  0  0  0  0  0  0  0  0  0  0
   27.8830    9.7800   21.2080 C   0  0  0  0  0  0  0  0  0  0  0  0
   27.3000   10.8010   20.4650 C   0  0  0  0  0  0  0  0  0  0  0  0
   28.0930   11.9190   20.2200 C   0  0  0  0  0  0  0  0  0  0  0  0
   29.3850   11.9780   20.7130 C   0  0  0  0  0  0  0  0  0  0  0  0
    0.0000    0.0000    0.0000 H   0  0  0  0  0  0  0  0  0  0  0  0
    0.0000    0.0000    0.0000 H   0  0  0  0  0  0  0  0  0  0  0  0
    0.0000    0.0000    0.0000 H   0  0  0  0  0  0  0  0  0  0  0  0
    0.0000    0.0000    0.0000 H   0  0  0  0  0  0  0  0  0  0  0  0
    0.0000    0.0000    0.0000 H   0  0  0  0  0  0  0  0  0  0  0  0
    0.0000    0.0000    0.0000 H   0  0  0  0  0  0  0  0  0  0  0  0
    0.0000    0.0000    0.0000 H   0  0  0  0  0  0  0  0  0  0  0  0
    0.0000    0.0000    0.0000 H   0  0  0  0  0  0  0  0  0  0  0  0
    0.0000    0.0000    0.0000 H   0  0  0  0  0  0  0  0  0  0  0  0
    0.0000    0.0000    0.0000 H   0  0  0  0  0  0  0  0  0  0  0  0
    0.0000    0.0000    0.0000 H   0  0  0  0  0  0  0  0  0  0  0  0
    0.0000    0.0000    0.0000 H   0  0  0  0  0  0  0  0  0  0  0  0
    0.0000    0.0000    0.0000 H   0  0  0  0  0  0  0  0  0  0  0  0
   10.8786    5.1951   10.4997 O   0  0  0  0  0  0  0  0  0  0  0  0
   11.6948    5.0255    9.3612 C   0  0  0  0  0  0  0  0  0  0  0  0
   10.8560    4.5187    8.2211 C   0  0  0  0  0  0  0  0  0  0  0  0
   11.4680    4.2902    7.0193 N   0  0  0  0  0  0  0  0  0  0  0  0
   12.3910    3.2737    6.8207 C   0  0  0  0  0  0  0  0  0  0  0  0
   12.3089    2.5583    5.5084 C   0  0  0  0  0  0  0  0  0  0  0  0
   11.6059    3.2634    4.4208 C   0  0  0  0  0  0  0  0  0  0  0  0
   10.6099    4.3041    4.8490 C   0  0  0  0  0  0  0  0  0  0  0  0
   11.2894    5.1672    5.9228 C   0  0  0  0  0  0  0  0  0  0  0  0
   12.2060    5.9677    9.1734 H   0  0  0  0  0  0  0  0  0  0  0  0
   12.4659    4.2571    9.6231 H   0  0  0  0  0  0  0  0  0  0  0  0
   10.0069    5.2356    8.1057 H   0  0  0  0  0  0  0  0  0  0  0  0
   10.3559    3.5746    8.5892 H   0  0  0  0  0  0  0  0  0  0  0  0
   13.4345    3.7063    6.8752 H   0  0  0  0  0  0  0  0  0  0  0  0
   12.3616    2.5337    7.6651 H   0  0  0  0  0  0  0  0  0  0  0  0
   13.3329    2.2756    5.1373 H   0  0  0  0  0  0  0  0  0  0  0  0
   11.8078    1.5671    5.6892 H   0  0  0  0  0  0  0  0  0  0  0  0
   11.0404    2.5289    3.7765 H   0  0  0  0  0  0  0  0  0  0  0  0
   12.2975    3.7755    3.6893 H   0  0  0  0  0  0  0  0  0  0  0  0
    9.7887    3.7708    5.3804 H   0  0  0  0  0  0  0  0  0  0  0  0
   10.2787    4.8857    3.9935 H   0  0  0  0  0  0  0  0  0  0  0  0
   10.7772    6.1014    6.1057 H   0  0  0  0  0  0  0  0  0  0  0  0
   12.3175    5.3782    5.5008 H   0  0  0  0  0  0  0  0  0  0  0  0
  1  3  2  0
  1  4  1  0
  2  4  1  0
  1  5  1  0
  2  6  1  0
  5  6  1  0
  6  7  2  3
  5  8  1  0
  4 10  1  0
 10 11  2  0
 11 12  1  0
 12 13  2  0
 13 14  1  0
 10 15  1  0
 14 15  2  0
  9 16  2  0
  9 17  1  0
 14 18  1  0
 17 18  2  0
 18 19  1  0
 16 20  1  0
 19 20  2  0
  2 21  1  0
  7 22  1  0
  8 23  1  0
  8 24  1  0
  8 25  1  0
 11 26  1  0
 12 27  1  0
 13 28  1  0
 15 29  1  0
 16 30  1  0
 17 31  1  0
 19 32  1  0
 20 33  1  0
 34 35  1  0
 35 36  1  0
 36 37  1  0
 37 38  1  0
 38 39  1  0
 39 40  1  0
 40 41  1  0
 41 42  1  0
 42 37  1  0
 35 43  1  0
 35 44  1  0
 36 45  1  0
 36 46  1  0
 38 47  1  0
 38 48  1  0
 39 49  1  0
 39 50  1  0
 40 51  1  0
 40 52  1  0
 41 53  1  0
 41 54  1  0
 42 55  1  0
 42 56  1  0
  4 34  1  6
M  END
>  <attachment_point>  (173) 
21

>  <score>  (173) 
<NA>

$$$$
4djw
     RDKit          3D

 42 44  0  0  0  0  0  0  0  0999 V2000
   22.4950   11.8750   22.5810 C   0  0  0  0  0  0  0  0  0  0  0  0
   22.5380    9.4930   22.4640 N   0  0  0  0  0  0  0  0  0  0  0  0
   22.3600   13.0630   22.3480 O   0  0  0  0  0  0  0  0  0  0  0  0
   22.3390   10.6680   21.5610 C   0  0  2  0  0  0  0  0  0  0  0  0
   22.7860   11.3350   23.8120 N   0  0  0  0  0  0  0  0  0  0  0  0
   22.7800    9.9140   23.7010 C   0  0  0  0  0  0  0  0  0  0  0  0
   22.9970    9.1110   24.7490 N   0  0  0  0  0  0  0  0  0  0  0  0
   23.0220   12.1410   25.0180 C   0  0  0  0  0  0  0  0  0  0  0  0
   29.1260    9.8230   21.7090 N   0  0  0  0  0  0  0  0  0  0  0  0
   23.4880   10.6920   20.5300 C   0  0  0  0  0  0  0  0  0  0  0  0
   23.2110   10.7890   19.1730 C   0  0  0  0  0  0  0  0  0  0  0  0
   24.2350   10.8650   18.2430 C   0  0  0  0  0  0  0  0  0  0  0  0
   25.5500   10.8410   18.6560 C   0  0  0  0  0  0  0  0  0  0  0  0
   25.8710   10.7460   20.0070 C   0  0  0  0  0  0  0  0  0  0  0  0
   24.8260   10.6610   20.9430 C   0  0  0  0  0  0  0  0  0  0  0  0
   29.8540   10.9130   21.4510 C   0  0  0  0  0  0  0  0  0  0  0  0
   27.8830    9.7800   21.2080 C   0  0  0  0  0  0  0  0  0  0  0  0
   27.3000   10.8010   20.4650 C   0  0  0  0  0  0  0  0  0  0  0  0
   28.0930   11.9190   20.2200 C   0  0  0  0  0  0  0  0  0  0  0  0
   29.3850   11.9780   20.7130 C   0  0  0  0  0  0  0  0  0  0  0  0
    0.0000    0.0000    0.0000 H   0  0  0  0  0  0  0  0  0  0  0  0
    0.0000    0.0000    0.0000 H   0  0  0  0  0  0  0  0  0  0  0  0
    0.0000    0.0000    0.0000 H   0  0  0  0  0  0  0  0  0  0  0  0
    0.0000    0.0000    0.0000 H   0  0  0  0  0  0  0  0  0  0  0  0
    0.0000    0.0000    0.0000 H   0  0  0  0  0  0  0  0  0  0  0  0
    0.0000    0.0000    0.0000 H   0  0  0  0  0  0  0  0  0  0  0  0
    0.0000    0.0000    0.0000 H   0  0  0  0  0  0  0  0  0  0  0  0
    0.0000    0.0000    0.0000 H   0  0  0  0  0  0  0  0  0  0  0  0
    0.0000    0.0000    0.0000 H   0  0  0  0  0  0  0  0  0  0  0  0
    0.0000    0.0000    0.0000 H   0  0  0  0  0  0  0  0  0  0  0  0
    0.0000    0.0000    0.0000 H   0  0  0  0  0  0  0  0  0  0  0  0
    0.0000    0.0000    0.0000 H   0  0  0  0  0  0  0  0  0  0  0  0
    0.0000    0.0000    0.0000 H   0  0  0  0  0  0  0  0  0  0  0  0
   10.9002    5.2054   10.5206 C   0  0  0  0  0  0  0  0  0  0  0  0
    9.7018    6.0465   10.3790 N   0  0  0  0  0  0  0  0  0  0  0  0
   10.1030    7.3719    9.9399 C   0  0  0  0  0  0  0  0  0  0  0  0
   10.5097    4.1677   10.6227 H   0  0  0  0  0  0  0  0  0  0  0  0
   11.3597    5.2478    9.4903 H   0  0  0  0  0  0  0  0  0  0  0  0
    9.1628    6.0558   11.2654 H   0  0  0  0  0  0  0  0  0  0  0  0
    9.8493    8.0937   10.7312 H   0  0  0  0  0  0  0  0  0  0  0  0
    9.6012    7.6822    9.0054 H   0  0  0  0  0  0  0  0  0  0  0  0
   11.2042    7.3825    9.7481 H   0  0  0  0  0  0  0  0  0  0  0  0
  1  3  2  0
  1  4  1  0
  2  4  1  0
  1  5  1  0
  2  6  1  0
  5  6  1  0
  6  7  2  3
  5  8  1  0
  4 10  1  0
 10 11  2  0
 11 12  1  0
 12 13  2  0
 13 14  1  0
 10 15  1  0
 14 15  2  0
  9 16  2  0
  9 17  1  0
 14 18  1  0
 17 18  2  0
 18 19  1  0
 16 20  1  0
 19 20  2  0
  2 21  1  0
  7 22  1  0
  8 23  1  0
  8 24  1  0
  8 25  1  0
 11 26  1  0
 12 27  1  0
 13 28  1  0
 15 29  1  0
 16 30  1  0
 17 31  1  0
 19 32  1  0
 20 33  1  0
 34 35  1  0
 35 36  1  0
 34 37  1  0
 34 38  1  0
 35 39  1  0
 36 40  1  0
 36 41  1  0
 36 42  1  0
  4 34  1  6
M  END
>  <attachment_point>  (174) 
21

>  <score>  (174) 
<NA>

$$$$
4djw
     RDKit          3D

 49 52  0  0  0  0  0  0  0  0999 V2000
   22.4950   11.8750   22.5810 C   0  0  0  0  0  0  0  0  0  0  0  0
   22.5380    9.4930   22.4640 N   0  0  0  0  0  0  0  0  0  0  0  0
   22.3600   13.0630   22.3480 O   0  0  0  0  0  0  0  0  0  0  0  0
   22.3390   10.6680   21.5610 C   0  0  2  0  0  0  0  0  0  0  0  0
   22.7860   11.3350   23.8120 N   0  0  0  0  0  0  0  0  0  0  0  0
   22.7800    9.9140   23.7010 C   0  0  0  0  0  0  0  0  0  0  0  0
   22.9970    9.1110   24.7490 N   0  0  0  0  0  0  0  0  0  0  0  0
   23.0220   12.1410   25.0180 C   0  0  0  0  0  0  0  0  0  0  0  0
   29.1260    9.8230   21.7090 N   0  0  0  0  0  0  0  0  0  0  0  0
   23.4880   10.6920   20.5300 C   0  0  0  0  0  0  0  0  0  0  0  0
   23.2110   10.7890   19.1730 C   0  0  0  0  0  0  0  0  0  0  0  0
   24.2350   10.8650   18.2430 C   0  0  0  0  0  0  0  0  0  0  0  0
   25.5500   10.8410   18.6560 C   0  0  0  0  0  0  0  0  0  0  0  0
   25.8710   10.7460   20.0070 C   0  0  0  0  0  0  0  0  0  0  0  0
   24.8260   10.6610   20.9430 C   0  0  0  0  0  0  0  0  0  0  0  0
   29.8540   10.9130   21.4510 C   0  0  0  0  0  0  0  0  0  0  0  0
   27.8830    9.7800   21.2080 C   0  0  0  0  0  0  0  0  0  0  0  0
   27.3000   10.8010   20.4650 C   0  0  0  0  0  0  0  0  0  0  0  0
   28.0930   11.9190   20.2200 C   0  0  0  0  0  0  0  0  0  0  0  0
   29.3850   11.9780   20.7130 C   0  0  0  0  0  0  0  0  0  0  0  0
    0.0000    0.0000    0.0000 H   0  0  0  0  0  0  0  0  0  0  0  0
    0.0000    0.0000    0.0000 H   0  0  0  0  0  0  0  0  0  0  0  0
    0.0000    0.0000    0.0000 H   0  0  0  0  0  0  0  0  0  0  0  0
    0.0000    0.0000    0.0000 H   0  0  0  0  0  0  0  0  0  0  0  0
    0.0000    0.0000    0.0000 H   0  0  0  0  0  0  0  0  0  0  0  0
    0.0000    0.0000    0.0000 H   0  0  0  0  0  0  0  0  0  0  0  0
    0.0000    0.0000    0.0000 H   0  0  0  0  0  0  0  0  0  0  0  0
    0.0000    0.0000    0.0000 H   0  0  0  0  0  0  0  0  0  0  0  0
    0.0000    0.0000    0.0000 H   0  0  0  0  0  0  0  0  0  0  0  0
    0.0000    0.0000    0.0000 H   0  0  0  0  0  0  0  0  0  0  0  0
    0.0000    0.0000    0.0000 H   0  0  0  0  0  0  0  0  0  0  0  0
    0.0000    0.0000    0.0000 H   0  0  0  0  0  0  0  0  0  0  0  0
    0.0000    0.0000    0.0000 H   0  0  0  0  0  0  0  0  0  0  0  0
   10.8646    5.1884   10.4862 C   0  0  0  0  0  0  0  0  0  0  0  0
    9.6858    5.8497   10.3328 C   0  0  0  0  0  0  0  0  0  0  0  0
    8.6999    5.4535    9.4411 C   0  0  0  0  0  0  0  0  0  0  0  0
    8.9750    4.3145    8.6850 C   0  0  0  0  0  0  0  0  0  0  0  0
    7.8103    3.7058    7.5186 S   0  0  0  0  0  6  0  0  0  0  0  0
    8.1113    4.4415    5.9870 N   0  0  0  0  0  0  0  0  0  0  0  0
    8.0098    2.2410    7.3928 O   0  0  0  0  0  0  0  0  0  0  0  0
    6.3911    3.9826    7.9857 O   0  0  0  0  0  0  0  0  0  0  0  0
   10.1674    3.6383    8.8344 C   0  0  0  0  0  0  0  0  0  0  0  0
   11.1292    4.0708    9.7414 C   0  0  0  0  0  0  0  0  0  0  0  0
    9.4802    6.7386   10.9281 H   0  0  0  0  0  0  0  0  0  0  0  0
    7.7713    5.9583    9.3073 H   0  0  0  0  0  0  0  0  0  0  0  0
    7.6248    3.9024    5.2444 H   0  0  0  0  0  0  0  0  0  0  0  0
    7.8353    5.4566    6.0091 H   0  0  0  0  0  0  0  0  0  0  0  0
   10.3854    2.7444    8.2424 H   0  0  0  0  0  0  0  0  0  0  0  0
   12.0435    3.5007    9.8144 H   0  0  0  0  0  0  0  0  0  0  0  0
  1  3  2  0
  1  4  1  0
  2  4  1  0
  1  5  1  0
  2  6  1  0
  5  6  1  0
  6  7  2  3
  5  8  1  0
  4 10  1  6
 10 11  2  0
 11 12  1  0
 12 13  2  0
 13 14  1  0
 10 15  1  0
 14 15  2  0
  9 16  2  0
  9 17  1  0
 14 18  1  0
 17 18  2  0
 18 19  1  0
 16 20  1  0
 19 20  2  0
  2 21  1  0
  7 22  1  0
  8 23  1  0
  8 24  1  0
  8 25  1  0
 11 26  1  0
 12 27  1  0
 13 28  1  0
 15 29  1  0
 16 30  1  0
 17 31  1  0
 19 32  1  0
 20 33  1  0
 34 35  2  0
 35 36  1  0
 36 37  2  0
 37 38  1  0
 38 39  1  0
 38 40  2  0
 38 41  2  0
 37 42  1  0
 42 43  2  0
 43 34  1  0
 35 44  1  0
 36 45  1  0
 39 46  1  0
 39 47  1  0
 42 48  1  0
 43 49  1  0
  4 34  1  0
M  END
>  <attachment_point>  (175) 
21

>  <score>  (175) 
<NA>

$$$$
4djw
     RDKit          3D

 52 55  0  0  0  0  0  0  0  0999 V2000
   22.4950   11.8750   22.5810 C   0  0  0  0  0  0  0  0  0  0  0  0
   22.5380    9.4930   22.4640 N   0  0  0  0  0  0  0  0  0  0  0  0
   22.3600   13.0630   22.3480 O   0  0  0  0  0  0  0  0  0  0  0  0
   22.3390   10.6680   21.5610 C   0  0  2  0  0  0  0  0  0  0  0  0
   22.7860   11.3350   23.8120 N   0  0  0  0  0  0  0  0  0  0  0  0
   22.7800    9.9140   23.7010 C   0  0  0  0  0  0  0  0  0  0  0  0
   22.9970    9.1110   24.7490 N   0  0  0  0  0  0  0  0  0  0  0  0
   23.0220   12.1410   25.0180 C   0  0  0  0  0  0  0  0  0  0  0  0
   29.1260    9.8230   21.7090 N   0  0  0  0  0  0  0  0  0  0  0  0
   23.4880   10.6920   20.5300 C   0  0  0  0  0  0  0  0  0  0  0  0
   23.2110   10.7890   19.1730 C   0  0  0  0  0  0  0  0  0  0  0  0
   24.2350   10.8650   18.2430 C   0  0  0  0  0  0  0  0  0  0  0  0
   25.5500   10.8410   18.6560 C   0  0  0  0  0  0  0  0  0  0  0  0
   25.8710   10.7460   20.0070 C   0  0  0  0  0  0  0  0  0  0  0  0
   24.8260   10.6610   20.9430 C   0  0  0  0  0  0  0  0  0  0  0  0
   29.8540   10.9130   21.4510 C   0  0  0  0  0  0  0  0  0  0  0  0
   27.8830    9.7800   21.2080 C   0  0  0  0  0  0  0  0  0  0  0  0
   27.3000   10.8010   20.4650 C   0  0  0  0  0  0  0  0  0  0  0  0
   28.0930   11.9190   20.2200 C   0  0  0  0  0  0  0  0  0  0  0  0
   29.3850   11.9780   20.7130 C   0  0  0  0  0  0  0  0  0  0  0  0
    0.0000    0.0000    0.0000 H   0  0  0  0  0  0  0  0  0  0  0  0
    0.0000    0.0000    0.0000 H   0  0  0  0  0  0  0  0  0  0  0  0
    0.0000    0.0000    0.0000 H   0  0  0  0  0  0  0  0  0  0  0  0
    0.0000    0.0000    0.0000 H   0  0  0  0  0  0  0  0  0  0  0  0
    0.0000    0.0000    0.0000 H   0  0  0  0  0  0  0  0  0  0  0  0
    0.0000    0.0000    0.0000 H   0  0  0  0  0  0  0  0  0  0  0  0
    0.0000    0.0000    0.0000 H   0  0  0  0  0  0  0  0  0  0  0  0
    0.0000    0.0000    0.0000 H   0  0  0  0  0  0  0  0  0  0  0  0
    0.0000    0.0000    0.0000 H   0  0  0  0  0  0  0  0  0  0  0  0
    0.0000    0.0000    0.0000 H   0  0  0  0  0  0  0  0  0  0  0  0
    0.0000    0.0000    0.0000 H   0  0  0  0  0  0  0  0  0  0  0  0
    0.0000    0.0000    0.0000 H   0  0  0  0  0  0  0  0  0  0  0  0
    0.0000    0.0000    0.0000 H   0  0  0  0  0  0  0  0  0  0  0  0
   10.8726    5.1922   10.4939 C   0  0  0  0  0  0  0  0  0  0  0  0
    9.8557    4.4545   11.3291 C   0  0  0  0  0  0  0  0  0  0  0  0
    9.2969    5.4302   12.2748 N   0  0  0  0  0  0  0  0  0  0  0  0
    8.5984    4.7339   13.3379 C   0  0  0  0  0  0  0  0  0  0  0  0
    7.4326    5.5928   13.6725 C   0  0  0  0  0  0  0  0  0  0  0  0
    7.0180    6.1829   12.3402 C   0  0  0  0  0  0  0  0  0  0  0  0
    8.2871    6.2183   11.5871 C   0  0  0  0  0  0  0  0  0  0  0  0
   11.3430    4.5406    9.7297 H   0  0  0  0  0  0  0  0  0  0  0  0
   10.4103    6.0926   10.0778 H   0  0  0  0  0  0  0  0  0  0  0  0
    9.0191    4.1581   10.6174 H   0  0  0  0  0  0  0  0  0  0  0  0
   10.1699    3.5296   11.7961 H   0  0  0  0  0  0  0  0  0  0  0  0
    8.3815    3.6805   13.1258 H   0  0  0  0  0  0  0  0  0  0  0  0
    9.3098    4.7239   14.2190 H   0  0  0  0  0  0  0  0  0  0  0  0
    7.7926    6.4408   14.2792 H   0  0  0  0  0  0  0  0  0  0  0  0
    6.6015    5.0499   14.1118 H   0  0  0  0  0  0  0  0  0  0  0  0
    6.6320    7.2193   12.5109 H   0  0  0  0  0  0  0  0  0  0  0  0
    6.2697    5.5585   11.8123 H   0  0  0  0  0  0  0  0  0  0  0  0
    8.1593    5.8137   10.5389 H   0  0  0  0  0  0  0  0  0  0  0  0
    8.6923    7.2298   11.4642 H   0  0  0  0  0  0  0  0  0  0  0  0
  1  3  2  0
  1  4  1  0
  2  4  1  0
  1  5  1  0
  2  6  1  0
  5  6  1  0
  6  7  2  3
  5  8  1  0
  4 10  1  0
 10 11  2  0
 11 12  1  0
 12 13  2  0
 13 14  1  0
 10 15  1  0
 14 15  2  0
  9 16  2  0
  9 17  1  0
 14 18  1  0
 17 18  2  0
 18 19  1  0
 16 20  1  0
 19 20  2  0
  2 21  1  0
  7 22  1  0
  8 23  1  0
  8 24  1  0
  8 25  1  0
 11 26  1  0
 12 27  1  0
 13 28  1  0
 15 29  1  0
 16 30  1  0
 17 31  1  0
 19 32  1  0
 20 33  1  0
 34 35  1  0
 35 36  1  0
 36 37  1  0
 37 38  1  0
 38 39  1  0
 39 40  1  0
 40 36  1  0
 34 41  1  0
 34 42  1  0
 35 43  1  0
 35 44  1  0
 37 45  1  0
 37 46  1  0
 38 47  1  0
 38 48  1  0
 39 49  1  0
 39 50  1  0
 40 51  1  0
 40 52  1  0
  4 34  1  6
M  END
>  <attachment_point>  (176) 
21

>  <score>  (176) 
<NA>

$$$$
4djw
     RDKit          3D

 41 44  0  0  0  0  0  0  0  0999 V2000
   22.4950   11.8750   22.5810 C   0  0  0  0  0  0  0  0  0  0  0  0
   22.5380    9.4930   22.4640 N   0  0  0  0  0  0  0  0  0  0  0  0
   22.3600   13.0630   22.3480 O   0  0  0  0  0  0  0  0  0  0  0  0
   22.3390   10.6680   21.5610 C   0  0  2  0  0  0  0  0  0  0  0  0
   22.7860   11.3350   23.8120 N   0  0  0  0  0  0  0  0  0  0  0  0
   22.7800    9.9140   23.7010 C   0  0  0  0  0  0  0  0  0  0  0  0
   22.9970    9.1110   24.7490 N   0  0  0  0  0  0  0  0  0  0  0  0
   23.0220   12.1410   25.0180 C   0  0  0  0  0  0  0  0  0  0  0  0
   29.1260    9.8230   21.7090 N   0  0  0  0  0  0  0  0  0  0  0  0
   23.4880   10.6920   20.5300 C   0  0  0  0  0  0  0  0  0  0  0  0
   23.2110   10.7890   19.1730 C   0  0  0  0  0  0  0  0  0  0  0  0
   24.2350   10.8650   18.2430 C   0  0  0  0  0  0  0  0  0  0  0  0
   25.5500   10.8410   18.6560 C   0  0  0  0  0  0  0  0  0  0  0  0
   25.8710   10.7460   20.0070 C   0  0  0  0  0  0  0  0  0  0  0  0
   24.8260   10.6610   20.9430 C   0  0  0  0  0  0  0  0  0  0  0  0
   29.8540   10.9130   21.4510 C   0  0  0  0  0  0  0  0  0  0  0  0
   27.8830    9.7800   21.2080 C   0  0  0  0  0  0  0  0  0  0  0  0
   27.3000   10.8010   20.4650 C   0  0  0  0  0  0  0  0  0  0  0  0
   28.0930   11.9190   20.2200 C   0  0  0  0  0  0  0  0  0  0  0  0
   29.3850   11.9780   20.7130 C   0  0  0  0  0  0  0  0  0  0  0  0
    0.0000    0.0000    0.0000 H   0  0  0  0  0  0  0  0  0  0  0  0
    0.0000    0.0000    0.0000 H   0  0  0  0  0  0  0  0  0  0  0  0
    0.0000    0.0000    0.0000 H   0  0  0  0  0  0  0  0  0  0  0  0
    0.0000    0.0000    0.0000 H   0  0  0  0  0  0  0  0  0  0  0  0
    0.0000    0.0000    0.0000 H   0  0  0  0  0  0  0  0  0  0  0  0
    0.0000    0.0000    0.0000 H   0  0  0  0  0  0  0  0  0  0  0  0
    0.0000    0.0000    0.0000 H   0  0  0  0  0  0  0  0  0  0  0  0
    0.0000    0.0000    0.0000 H   0  0  0  0  0  0  0  0  0  0  0  0
    0.0000    0.0000    0.0000 H   0  0  0  0  0  0  0  0  0  0  0  0
    0.0000    0.0000    0.0000 H   0  0  0  0  0  0  0  0  0  0  0  0
    0.0000    0.0000    0.0000 H   0  0  0  0  0  0  0  0  0  0  0  0
    0.0000    0.0000    0.0000 H   0  0  0  0  0  0  0  0  0  0  0  0
    0.0000    0.0000    0.0000 H   0  0  0  0  0  0  0  0  0  0  0  0
   10.8089    5.1618   10.4324 C   0  0  0  0  0  0  0  0  0  0  0  0
    9.6085    5.7270   10.3400 C   0  0  0  0  0  0  0  0  0  0  0  0
    8.9554    4.9967    9.3180 C   0  0  0  0  0  0  0  0  0  0  0  0
    9.8383    4.0615    8.8997 N   0  0  0  0  0  0  0  0  0  0  0  0
   10.9673    4.2012    9.6152 N   0  0  0  0  0  0  0  0  0  0  0  0
    9.1637    6.5509   10.8810 H   0  0  0  0  0  0  0  0  0  0  0  0
    7.9508    5.1976    8.9857 H   0  0  0  0  0  0  0  0  0  0  0  0
    9.6914    3.3632    8.1698 H   0  0  0  0  0  0  0  0  0  0  0  0
  1  3  2  0
  1  4  1  0
  2  4  1  0
  1  5  1  0
  2  6  1  0
  5  6  1  0
  6  7  2  3
  5  8  1  0
  4 10  1  6
 10 11  2  0
 11 12  1  0
 12 13  2  0
 13 14  1  0
 10 15  1  0
 14 15  2  0
  9 16  2  0
  9 17  1  0
 14 18  1  0
 17 18  2  0
 18 19  1  0
 16 20  1  0
 19 20  2  0
  2 21  1  0
  7 22  1  0
  8 23  1  0
  8 24  1  0
  8 25  1  0
 11 26  1  0
 12 27  1  0
 13 28  1  0
 15 29  1  0
 16 30  1  0
 17 31  1  0
 19 32  1  0
 20 33  1  0
 34 35  1  0
 35 36  2  0
 36 37  1  0
 37 38  1  0
 38 34  2  0
 35 39  1  0
 36 40  1  0
 37 41  1  0
  4 34  1  0
M  END
>  <attachment_point>  (177) 
21

>  <score>  (177) 
<NA>

$$$$
4djw
     RDKit          3D

 59 62  0  0  0  0  0  0  0  0999 V2000
   22.4950   11.8750   22.5810 C   0  0  0  0  0  0  0  0  0  0  0  0
   22.5380    9.4930   22.4640 N   0  0  0  0  0  0  0  0  0  0  0  0
   22.3600   13.0630   22.3480 O   0  0  0  0  0  0  0  0  0  0  0  0
   22.3390   10.6680   21.5610 C   0  0  2  0  0  0  0  0  0  0  0  0
   22.7860   11.3350   23.8120 N   0  0  0  0  0  0  0  0  0  0  0  0
   22.7800    9.9140   23.7010 C   0  0  0  0  0  0  0  0  0  0  0  0
   22.9970    9.1110   24.7490 N   0  0  0  0  0  0  0  0  0  0  0  0
   23.0220   12.1410   25.0180 C   0  0  0  0  0  0  0  0  0  0  0  0
   29.1260    9.8230   21.7090 N   0  0  0  0  0  0  0  0  0  0  0  0
   23.4880   10.6920   20.5300 C   0  0  0  0  0  0  0  0  0  0  0  0
   23.2110   10.7890   19.1730 C   0  0  0  0  0  0  0  0  0  0  0  0
   24.2350   10.8650   18.2430 C   0  0  0  0  0  0  0  0  0  0  0  0
   25.5500   10.8410   18.6560 C   0  0  0  0  0  0  0  0  0  0  0  0
   25.8710   10.7460   20.0070 C   0  0  0  0  0  0  0  0  0  0  0  0
   24.8260   10.6610   20.9430 C   0  0  0  0  0  0  0  0  0  0  0  0
   29.8540   10.9130   21.4510 C   0  0  0  0  0  0  0  0  0  0  0  0
   27.8830    9.7800   21.2080 C   0  0  0  0  0  0  0  0  0  0  0  0
   27.3000   10.8010   20.4650 C   0  0  0  0  0  0  0  0  0  0  0  0
   28.0930   11.9190   20.2200 C   0  0  0  0  0  0  0  0  0  0  0  0
   29.3850   11.9780   20.7130 C   0  0  0  0  0  0  0  0  0  0  0  0
    0.0000    0.0000    0.0000 H   0  0  0  0  0  0  0  0  0  0  0  0
    0.0000    0.0000    0.0000 H   0  0  0  0  0  0  0  0  0  0  0  0
    0.0000    0.0000    0.0000 H   0  0  0  0  0  0  0  0  0  0  0  0
    0.0000    0.0000    0.0000 H   0  0  0  0  0  0  0  0  0  0  0  0
    0.0000    0.0000    0.0000 H   0  0  0  0  0  0  0  0  0  0  0  0
    0.0000    0.0000    0.0000 H   0  0  0  0  0  0  0  0  0  0  0  0
    0.0000    0.0000    0.0000 H   0  0  0  0  0  0  0  0  0  0  0  0
    0.0000    0.0000    0.0000 H   0  0  0  0  0  0  0  0  0  0  0  0
    0.0000    0.0000    0.0000 H   0  0  0  0  0  0  0  0  0  0  0  0
    0.0000    0.0000    0.0000 H   0  0  0  0  0  0  0  0  0  0  0  0
    0.0000    0.0000    0.0000 H   0  0  0  0  0  0  0  0  0  0  0  0
    0.0000    0.0000    0.0000 H   0  0  0  0  0  0  0  0  0  0  0  0
    0.0000    0.0000    0.0000 H   0  0  0  0  0  0  0  0  0  0  0  0
   10.8768    5.1942   10.4979 O   0  0  0  0  0  0  0  0  0  0  0  0
    9.6912    5.6212   11.1084 C   0  0  0  0  0  0  0  0  0  0  0  0
    8.4922    5.3752   10.2006 C   0  0  0  0  0  0  0  0  0  0  0  0
    7.2787    5.8729   10.9631 C   0  0  0  0  0  0  0  0  0  0  0  0
    6.0616    5.7045   10.2200 N   0  0  0  0  0  0  0  0  0  0  0  0
    5.7154    4.3563   10.0950 C   0  0  0  0  0  0  0  0  0  0  0  0
    4.5139    3.9964   10.9618 C   0  0  0  0  0  0  0  0  0  0  0  0
    3.3698    4.7938   10.3914 C   0  0  0  0  0  0  0  0  0  0  0  0
    3.6606    6.2432   10.5184 C   0  0  0  0  0  0  0  0  0  0  0  0
    5.0904    6.6356   10.6236 C   0  0  0  0  0  0  0  0  0  0  0  0
    9.7257    6.6925   11.3165 H   0  0  0  0  0  0  0  0  0  0  0  0
    9.5159    5.0042   12.0172 H   0  0  0  0  0  0  0  0  0  0  0  0
    8.3963    4.3363    9.8717 H   0  0  0  0  0  0  0  0  0  0  0  0
    8.6625    6.0309    9.2925 H   0  0  0  0  0  0  0  0  0  0  0  0
    7.4777    6.9339   11.2533 H   0  0  0  0  0  0  0  0  0  0  0  0
    7.1855    5.2695   11.9181 H   0  0  0  0  0  0  0  0  0  0  0  0
    6.5122    3.6383   10.3174 H   0  0  0  0  0  0  0  0  0  0  0  0
    5.3572    4.1512    9.0412 H   0  0  0  0  0  0  0  0  0  0  0  0
    4.2890    2.9375   10.8247 H   0  0  0  0  0  0  0  0  0  0  0  0
    4.6757    4.3136   12.0124 H   0  0  0  0  0  0  0  0  0  0  0  0
    2.4404    4.5316   10.9333 H   0  0  0  0  0  0  0  0  0  0  0  0
    3.2234    4.5179    9.3197 H   0  0  0  0  0  0  0  0  0  0  0  0
    3.1590    6.7410    9.6583 H   0  0  0  0  0  0  0  0  0  0  0  0
    3.1026    6.6139   11.4213 H   0  0  0  0  0  0  0  0  0  0  0  0
    5.2267    7.5478    9.9662 H   0  0  0  0  0  0  0  0  0  0  0  0
    5.3012    7.0345   11.6438 H   0  0  0  0  0  0  0  0  0  0  0  0
  1  3  2  0
  1  4  1  0
  2  4  1  0
  1  5  1  0
  2  6  1  0
  5  6  1  0
  6  7  2  3
  5  8  1  0
  4 10  1  0
 10 11  2  0
 11 12  1  0
 12 13  2  0
 13 14  1  0
 10 15  1  0
 14 15  2  0
  9 16  2  0
  9 17  1  0
 14 18  1  0
 17 18  2  0
 18 19  1  0
 16 20  1  0
 19 20  2  0
  2 21  1  0
  7 22  1  0
  8 23  1  0
  8 24  1  0
  8 25  1  0
 11 26  1  0
 12 27  1  0
 13 28  1  0
 15 29  1  0
 16 30  1  0
 17 31  1  0
 19 32  1  0
 20 33  1  0
 34 35  1  0
 35 36  1  0
 36 37  1  0
 37 38  1  0
 38 39  1  0
 39 40  1  0
 40 41  1  0
 41 42  1  0
 42 43  1  0
 43 38  1  0
 35 44  1  0
 35 45  1  0
 36 46  1  0
 36 47  1  0
 37 48  1  0
 37 49  1  0
 39 50  1  0
 39 51  1  0
 40 52  1  0
 40 53  1  0
 41 54  1  0
 41 55  1  0
 42 56  1  0
 42 57  1  0
 43 58  1  0
 43 59  1  0
  4 34  1  6
M  END
>  <attachment_point>  (178) 
21

>  <score>  (178) 
<NA>

$$$$
4djw
     RDKit          3D

 50 52  0  0  0  0  0  0  0  0999 V2000
   22.4950   11.8750   22.5810 C   0  0  0  0  0  0  0  0  0  0  0  0
   22.5380    9.4930   22.4640 N   0  0  0  0  0  0  0  0  0  0  0  0
   22.3600   13.0630   22.3480 O   0  0  0  0  0  0  0  0  0  0  0  0
   22.3390   10.6680   21.5610 C   0  0  2  0  0  0  0  0  0  0  0  0
   22.7860   11.3350   23.8120 N   0  0  0  0  0  0  0  0  0  0  0  0
   22.7800    9.9140   23.7010 C   0  0  0  0  0  0  0  0  0  0  0  0
   22.9970    9.1110   24.7490 N   0  0  0  0  0  0  0  0  0  0  0  0
   23.0220   12.1410   25.0180 C   0  0  0  0  0  0  0  0  0  0  0  0
   29.1260    9.8230   21.7090 N   0  0  0  0  0  0  0  0  0  0  0  0
   23.4880   10.6920   20.5300 C   0  0  0  0  0  0  0  0  0  0  0  0
   23.2110   10.7890   19.1730 C   0  0  0  0  0  0  0  0  0  0  0  0
   24.2350   10.8650   18.2430 C   0  0  0  0  0  0  0  0  0  0  0  0
   25.5500   10.8410   18.6560 C   0  0  0  0  0  0  0  0  0  0  0  0
   25.8710   10.7460   20.0070 C   0  0  0  0  0  0  0  0  0  0  0  0
   24.8260   10.6610   20.9430 C   0  0  0  0  0  0  0  0  0  0  0  0
   29.8540   10.9130   21.4510 C   0  0  0  0  0  0  0  0  0  0  0  0
   27.8830    9.7800   21.2080 C   0  0  0  0  0  0  0  0  0  0  0  0
   27.3000   10.8010   20.4650 C   0  0  0  0  0  0  0  0  0  0  0  0
   28.0930   11.9190   20.2200 C   0  0  0  0  0  0  0  0  0  0  0  0
   29.3850   11.9780   20.7130 C   0  0  0  0  0  0  0  0  0  0  0  0
    0.0000    0.0000    0.0000 H   0  0  0  0  0  0  0  0  0  0  0  0
    0.0000    0.0000    0.0000 H   0  0  0  0  0  0  0  0  0  0  0  0
    0.0000    0.0000    0.0000 H   0  0  0  0  0  0  0  0  0  0  0  0
    0.0000    0.0000    0.0000 H   0  0  0  0  0  0  0  0  0  0  0  0
    0.0000    0.0000    0.0000 H   0  0  0  0  0  0  0  0  0  0  0  0
    0.0000    0.0000    0.0000 H   0  0  0  0  0  0  0  0  0  0  0  0
    0.0000    0.0000    0.0000 H   0  0  0  0  0  0  0  0  0  0  0  0
    0.0000    0.0000    0.0000 H   0  0  0  0  0  0  0  0  0  0  0  0
    0.0000    0.0000    0.0000 H   0  0  0  0  0  0  0  0  0  0  0  0
    0.0000    0.0000    0.0000 H   0  0  0  0  0  0  0  0  0  0  0  0
    0.0000    0.0000    0.0000 H   0  0  0  0  0  0  0  0  0  0  0  0
    0.0000    0.0000    0.0000 H   0  0  0  0  0  0  0  0  0  0  0  0
    0.0000    0.0000    0.0000 H   0  0  0  0  0  0  0  0  0  0  0  0
   10.8533    5.1830   10.4753 C   0  0  0  0  0  0  0  0  0  0  0  0
    9.6913    5.5150   10.7545 O   0  0  0  0  0  0  0  0  0  0  0  0
   11.2623    4.4299    9.3719 N   0  0  0  0  0  0  0  0  0  0  0  0
   10.2663    3.9696    8.4347 C   0  0  0  0  0  0  0  0  0  0  0  0
    9.7072    2.6305    8.7826 C   0  0  0  0  0  0  0  0  0  0  0  0
   12.6358    4.1232    9.1771 C   0  0  0  0  0  0  0  0  0  0  0  0
   13.0692    2.8291    9.8295 C   0  0  0  0  0  0  0  0  0  0  0  0
   10.7008    3.9831    7.3968 H   0  0  0  0  0  0  0  0  0  0  0  0
    9.4160    4.7015    8.3832 H   0  0  0  0  0  0  0  0  0  0  0  0
   10.2599    1.7923    8.3071 H   0  0  0  0  0  0  0  0  0  0  0  0
    9.7200    2.5454    9.9069 H   0  0  0  0  0  0  0  0  0  0  0  0
    8.6618    2.5786    8.4543 H   0  0  0  0  0  0  0  0  0  0  0  0
   12.8354    4.0044    8.0835 H   0  0  0  0  0  0  0  0  0  0  0  0
   13.2432    4.9548    9.5811 H   0  0  0  0  0  0  0  0  0  0  0  0
   13.0543    2.8733   10.9220 H   0  0  0  0  0  0  0  0  0  0  0  0
   14.0998    2.6177    9.4691 H   0  0  0  0  0  0  0  0  0  0  0  0
   12.4385    1.9865    9.4910 H   0  0  0  0  0  0  0  0  0  0  0  0
  1  3  2  0
  1  4  1  0
  2  4  1  0
  1  5  1  0
  2  6  1  0
  5  6  1  0
  6  7  2  3
  5  8  1  0
  4 10  1  0
 10 11  2  0
 11 12  1  0
 12 13  2  0
 13 14  1  0
 10 15  1  0
 14 15  2  0
  9 16  2  0
  9 17  1  0
 14 18  1  0
 17 18  2  0
 18 19  1  0
 16 20  1  0
 19 20  2  0
  2 21  1  0
  7 22  1  0
  8 23  1  0
  8 24  1  0
  8 25  1  0
 11 26  1  0
 12 27  1  0
 13 28  1  0
 15 29  1  0
 16 30  1  0
 17 31  1  0
 19 32  1  0
 20 33  1  0
 34 35  2  0
 34 36  1  0
 36 37  1  0
 37 38  1  0
 36 39  1  0
 39 40  1  0
 37 41  1  0
 37 42  1  0
 38 43  1  0
 38 44  1  0
 38 45  1  0
 39 46  1  0
 39 47  1  0
 40 48  1  0
 40 49  1  0
 40 50  1  0
  4 34  1  6
M  END
>  <attachment_point>  (179) 
21

>  <score>  (179) 
<NA>

$$$$
4djw
     RDKit          3D

 49 52  0  0  0  0  0  0  0  0999 V2000
   22.4950   11.8750   22.5810 C   0  0  0  0  0  0  0  0  0  0  0  0
   22.5380    9.4930   22.4640 N   0  0  0  0  0  0  0  0  0  0  0  0
   22.3600   13.0630   22.3480 O   0  0  0  0  0  0  0  0  0  0  0  0
   22.3390   10.6680   21.5610 C   0  0  2  0  0  0  0  0  0  0  0  0
   22.7860   11.3350   23.8120 N   0  0  0  0  0  0  0  0  0  0  0  0
   22.7800    9.9140   23.7010 C   0  0  0  0  0  0  0  0  0  0  0  0
   22.9970    9.1110   24.7490 N   0  0  0  0  0  0  0  0  0  0  0  0
   23.0220   12.1410   25.0180 C   0  0  0  0  0  0  0  0  0  0  0  0
   29.1260    9.8230   21.7090 N   0  0  0  0  0  0  0  0  0  0  0  0
   23.4880   10.6920   20.5300 C   0  0  0  0  0  0  0  0  0  0  0  0
   23.2110   10.7890   19.1730 C   0  0  0  0  0  0  0  0  0  0  0  0
   24.2350   10.8650   18.2430 C   0  0  0  0  0  0  0  0  0  0  0  0
   25.5500   10.8410   18.6560 C   0  0  0  0  0  0  0  0  0  0  0  0
   25.8710   10.7460   20.0070 C   0  0  0  0  0  0  0  0  0  0  0  0
   24.8260   10.6610   20.9430 C   0  0  0  0  0  0  0  0  0  0  0  0
   29.8540   10.9130   21.4510 C   0  0  0  0  0  0  0  0  0  0  0  0
   27.8830    9.7800   21.2080 C   0  0  0  0  0  0  0  0  0  0  0  0
   27.3000   10.8010   20.4650 C   0  0  0  0  0  0  0  0  0  0  0  0
   28.0930   11.9190   20.2200 C   0  0  0  0  0  0  0  0  0  0  0  0
   29.3850   11.9780   20.7130 C   0  0  0  0  0  0  0  0  0  0  0  0
    0.0000    0.0000    0.0000 H   0  0  0  0  0  0  0  0  0  0  0  0
    0.0000    0.0000    0.0000 H   0  0  0  0  0  0  0  0  0  0  0  0
    0.0000    0.0000    0.0000 H   0  0  0  0  0  0  0  0  0  0  0  0
    0.0000    0.0000    0.0000 H   0  0  0  0  0  0  0  0  0  0  0  0
    0.0000    0.0000    0.0000 H   0  0  0  0  0  0  0  0  0  0  0  0
    0.0000    0.0000    0.0000 H   0  0  0  0  0  0  0  0  0  0  0  0
    0.0000    0.0000    0.0000 H   0  0  0  0  0  0  0  0  0  0  0  0
    0.0000    0.0000    0.0000 H   0  0  0  0  0  0  0  0  0  0  0  0
    0.0000    0.0000    0.0000 H   0  0  0  0  0  0  0  0  0  0  0  0
    0.0000    0.0000    0.0000 H   0  0  0  0  0  0  0  0  0  0  0  0
    0.0000    0.0000    0.0000 H   0  0  0  0  0  0  0  0  0  0  0  0
    0.0000    0.0000    0.0000 H   0  0  0  0  0  0  0  0  0  0  0  0
    0.0000    0.0000    0.0000 H   0  0  0  0  0  0  0  0  0  0  0  0
   10.8625    5.1874   10.4842 C   0  0  0  0  0  0  0  0  0  0  0  0
   11.2138    4.7876    9.2231 C   0  0  0  0  0  0  0  0  0  0  0  0
   10.2378    4.3577    8.3835 C   0  0  0  0  0  0  0  0  0  0  0  0
    8.9040    4.2999    8.7296 C   0  0  0  0  0  0  0  0  0  0  0  0
    7.8470    3.8432    7.8455 C   0  0  0  0  0  0  0  0  0  0  0  0
    8.2823    3.4131    6.4672 C   0  0  0  0  0  0  0  0  0  0  0  0
    6.6506    3.7941    8.1628 O   0  0  0  0  0  0  0  0  0  0  0  0
    8.5663    4.7048    9.9996 C   0  0  0  0  0  0  0  0  0  0  0  0
    9.5417    5.1534   10.8925 C   0  0  0  0  0  0  0  0  0  0  0  0
   12.2416    4.8230    8.9307 H   0  0  0  0  0  0  0  0  0  0  0  0
   10.4849    4.0346    7.3782 H   0  0  0  0  0  0  0  0  0  0  0  0
    8.8992    4.2756    6.0874 H   0  0  0  0  0  0  0  0  0  0  0  0
    8.9989    2.5820    6.6244 H   0  0  0  0  0  0  0  0  0  0  0  0
    7.4381    3.1746    5.8236 H   0  0  0  0  0  0  0  0  0  0  0  0
    7.5421    4.6742   10.3042 H   0  0  0  0  0  0  0  0  0  0  0  0
    9.2451    5.4647   11.8835 H   0  0  0  0  0  0  0  0  0  0  0  0
  1  3  2  0
  1  4  1  0
  2  4  1  0
  1  5  1  0
  2  6  1  0
  5  6  1  0
  6  7  2  3
  5  8  1  0
  4 10  1  6
 10 11  2  0
 11 12  1  0
 12 13  2  0
 13 14  1  0
 10 15  1  0
 14 15  2  0
  9 16  2  0
  9 17  1  0
 14 18  1  0
 17 18  2  0
 18 19  1  0
 16 20  1  0
 19 20  2  0
  2 21  1  0
  7 22  1  0
  8 23  1  0
  8 24  1  0
  8 25  1  0
 11 26  1  0
 12 27  1  0
 13 28  1  0
 15 29  1  0
 16 30  1  0
 17 31  1  0
 19 32  1  0
 20 33  1  0
 34 35  2  0
 35 36  1  0
 36 37  2  0
 37 38  1  0
 38 39  1  0
 38 40  2  0
 37 41  1  0
 41 42  2  0
 42 34  1  0
 35 43  1  0
 36 44  1  0
 39 45  1  0
 39 46  1  0
 39 47  1  0
 41 48  1  0
 42 49  1  0
  4 34  1  0
M  END
>  <attachment_point>  (180) 
21

>  <score>  (180) 
<NA>

$$$$
4djw
     RDKit          3D

 46 50  0  0  0  0  0  0  0  0999 V2000
   22.4950   11.8750   22.5810 C   0  0  0  0  0  0  0  0  0  0  0  0
   22.5380    9.4930   22.4640 N   0  0  0  0  0  0  0  0  0  0  0  0
   22.3600   13.0630   22.3480 O   0  0  0  0  0  0  0  0  0  0  0  0
   22.3390   10.6680   21.5610 C   0  0  2  0  0  0  0  0  0  0  0  0
   22.7860   11.3350   23.8120 N   0  0  0  0  0  0  0  0  0  0  0  0
   22.7800    9.9140   23.7010 C   0  0  0  0  0  0  0  0  0  0  0  0
   22.9970    9.1110   24.7490 N   0  0  0  0  0  0  0  0  0  0  0  0
   23.0220   12.1410   25.0180 C   0  0  0  0  0  0  0  0  0  0  0  0
   29.1260    9.8230   21.7090 N   0  0  0  0  0  0  0  0  0  0  0  0
   23.4880   10.6920   20.5300 C   0  0  0  0  0  0  0  0  0  0  0  0
   23.2110   10.7890   19.1730 C   0  0  0  0  0  0  0  0  0  0  0  0
   24.2350   10.8650   18.2430 C   0  0  0  0  0  0  0  0  0  0  0  0
   25.5500   10.8410   18.6560 C   0  0  0  0  0  0  0  0  0  0  0  0
   25.8710   10.7460   20.0070 C   0  0  0  0  0  0  0  0  0  0  0  0
   24.8260   10.6610   20.9430 C   0  0  0  0  0  0  0  0  0  0  0  0
   29.8540   10.9130   21.4510 C   0  0  0  0  0  0  0  0  0  0  0  0
   27.8830    9.7800   21.2080 C   0  0  0  0  0  0  0  0  0  0  0  0
   27.3000   10.8010   20.4650 C   0  0  0  0  0  0  0  0  0  0  0  0
   28.0930   11.9190   20.2200 C   0  0  0  0  0  0  0  0  0  0  0  0
   29.3850   11.9780   20.7130 C   0  0  0  0  0  0  0  0  0  0  0  0
    0.0000    0.0000    0.0000 H   0  0  0  0  0  0  0  0  0  0  0  0
    0.0000    0.0000    0.0000 H   0  0  0  0  0  0  0  0  0  0  0  0
    0.0000    0.0000    0.0000 H   0  0  0  0  0  0  0  0  0  0  0  0
    0.0000    0.0000    0.0000 H   0  0  0  0  0  0  0  0  0  0  0  0
    0.0000    0.0000    0.0000 H   0  0  0  0  0  0  0  0  0  0  0  0
    0.0000    0.0000    0.0000 H   0  0  0  0  0  0  0  0  0  0  0  0
    0.0000    0.0000    0.0000 H   0  0  0  0  0  0  0  0  0  0  0  0
    0.0000    0.0000    0.0000 H   0  0  0  0  0  0  0  0  0  0  0  0
    0.0000    0.0000    0.0000 H   0  0  0  0  0  0  0  0  0  0  0  0
    0.0000    0.0000    0.0000 H   0  0  0  0  0  0  0  0  0  0  0  0
    0.0000    0.0000    0.0000 H   0  0  0  0  0  0  0  0  0  0  0  0
    0.0000    0.0000    0.0000 H   0  0  0  0  0  0  0  0  0  0  0  0
    0.0000    0.0000    0.0000 H   0  0  0  0  0  0  0  0  0  0  0  0
   10.8665    5.1893   10.4881 C   0  0  0  0  0  0  0  0  0  0  0  0
    9.7128    4.5517   10.7535 N   0  0  0  0  0  0  0  0  0  0  0  0
    9.1170    4.3051    9.5769 C   0  0  0  0  0  0  0  0  0  0  0  0
    7.9374    3.6952    9.1815 C   0  0  0  0  0  0  0  0  0  0  0  0
    7.5634    3.5773    7.8575 C   0  0  0  0  0  0  0  0  0  0  0  0
    8.4188    4.0973    6.9095 C   0  0  0  0  0  0  0  0  0  0  0  0
    9.6028    4.7104    7.2949 C   0  0  0  0  0  0  0  0  0  0  0  0
    9.9660    4.8223    8.6205 C   0  0  0  0  0  0  0  0  0  0  0  0
   11.0345    5.3604    9.2080 O   0  0  0  0  0  0  0  0  0  0  0  0
    7.2828    3.2954    9.9364 H   0  0  0  0  0  0  0  0  0  0  0  0
    6.6260    3.0892    7.5957 H   0  0  0  0  0  0  0  0  0  0  0  0
    8.1300    4.0074    5.8695 H   0  0  0  0  0  0  0  0  0  0  0  0
   10.2573    5.1107    6.5303 H   0  0  0  0  0  0  0  0  0  0  0  0
  1  3  2  0
  1  4  1  0
  2  4  1  0
  1  5  1  0
  2  6  1  0
  5  6  1  0
  6  7  2  3
  5  8  1  0
  4 10  1  6
 10 11  2  0
 11 12  1  0
 12 13  2  0
 13 14  1  0
 10 15  1  0
 14 15  2  0
  9 16  2  0
  9 17  1  0
 14 18  1  0
 17 18  2  0
 18 19  1  0
 16 20  1  0
 19 20  2  0
  2 21  1  0
  7 22  1  0
  8 23  1  0
  8 24  1  0
  8 25  1  0
 11 26  1  0
 12 27  1  0
 13 28  1  0
 15 29  1  0
 16 30  1  0
 17 31  1  0
 19 32  1  0
 20 33  1  0
 34 35  2  0
 35 36  1  0
 36 37  2  0
 37 38  1  0
 38 39  2  0
 39 40  1  0
 40 41  2  0
 41 42  1  0
 42 34  1  0
 41 36  1  0
 37 43  1  0
 38 44  1  0
 39 45  1  0
 40 46  1  0
  4 34  1  0
M  END
>  <attachment_point>  (181) 
21

>  <score>  (181) 
<NA>

$$$$
4djw
     RDKit          3D

 53 56  0  0  0  0  0  0  0  0999 V2000
   22.4950   11.8750   22.5810 C   0  0  0  0  0  0  0  0  0  0  0  0
   22.5380    9.4930   22.4640 N   0  0  0  0  0  0  0  0  0  0  0  0
   22.3600   13.0630   22.3480 O   0  0  0  0  0  0  0  0  0  0  0  0
   22.3390   10.6680   21.5610 C   0  0  2  0  0  0  0  0  0  0  0  0
   22.7860   11.3350   23.8120 N   0  0  0  0  0  0  0  0  0  0  0  0
   22.7800    9.9140   23.7010 C   0  0  0  0  0  0  0  0  0  0  0  0
   22.9970    9.1110   24.7490 N   0  0  0  0  0  0  0  0  0  0  0  0
   23.0220   12.1410   25.0180 C   0  0  0  0  0  0  0  0  0  0  0  0
   29.1260    9.8230   21.7090 N   0  0  0  0  0  0  0  0  0  0  0  0
   23.4880   10.6920   20.5300 C   0  0  0  0  0  0  0  0  0  0  0  0
   23.2110   10.7890   19.1730 C   0  0  0  0  0  0  0  0  0  0  0  0
   24.2350   10.8650   18.2430 C   0  0  0  0  0  0  0  0  0  0  0  0
   25.5500   10.8410   18.6560 C   0  0  0  0  0  0  0  0  0  0  0  0
   25.8710   10.7460   20.0070 C   0  0  0  0  0  0  0  0  0  0  0  0
   24.8260   10.6610   20.9430 C   0  0  0  0  0  0  0  0  0  0  0  0
   29.8540   10.9130   21.4510 C   0  0  0  0  0  0  0  0  0  0  0  0
   27.8830    9.7800   21.2080 C   0  0  0  0  0  0  0  0  0  0  0  0
   27.3000   10.8010   20.4650 C   0  0  0  0  0  0  0  0  0  0  0  0
   28.0930   11.9190   20.2200 C   0  0  0  0  0  0  0  0  0  0  0  0
   29.3850   11.9780   20.7130 C   0  0  0  0  0  0  0  0  0  0  0  0
    0.0000    0.0000    0.0000 H   0  0  0  0  0  0  0  0  0  0  0  0
    0.0000    0.0000    0.0000 H   0  0  0  0  0  0  0  0  0  0  0  0
    0.0000    0.0000    0.0000 H   0  0  0  0  0  0  0  0  0  0  0  0
    0.0000    0.0000    0.0000 H   0  0  0  0  0  0  0  0  0  0  0  0
    0.0000    0.0000    0.0000 H   0  0  0  0  0  0  0  0  0  0  0  0
    0.0000    0.0000    0.0000 H   0  0  0  0  0  0  0  0  0  0  0  0
    0.0000    0.0000    0.0000 H   0  0  0  0  0  0  0  0  0  0  0  0
    0.0000    0.0000    0.0000 H   0  0  0  0  0  0  0  0  0  0  0  0
    0.0000    0.0000    0.0000 H   0  0  0  0  0  0  0  0  0  0  0  0
    0.0000    0.0000    0.0000 H   0  0  0  0  0  0  0  0  0  0  0  0
    0.0000    0.0000    0.0000 H   0  0  0  0  0  0  0  0  0  0  0  0
    0.0000    0.0000    0.0000 H   0  0  0  0  0  0  0  0  0  0  0  0
    0.0000    0.0000    0.0000 H   0  0  0  0  0  0  0  0  0  0  0  0
   10.8752    5.1934   10.4964 C   0  0  0  0  0  0  0  0  0  0  0  0
    9.7990    5.8338   10.4570 O   0  0  0  0  0  0  0  0  0  0  0  0
   11.0702    4.0922    9.6506 N   0  0  0  0  0  0  0  0  0  0  0  0
   12.2806    3.2952    9.6284 C   0  0  0  0  0  0  0  0  0  0  0  0
   12.8088    3.3960    8.2173 C   0  0  0  0  0  0  0  0  0  0  0  0
   11.8929    3.1109    7.2028 N   0  0  0  0  0  0  0  0  0  0  0  0
   12.2440    1.8602    6.5544 C   0  0  0  0  0  0  0  0  0  0  0  0
   10.5220    3.2112    7.4181 C   0  0  0  0  0  0  0  0  0  0  0  0
   10.0358    3.6929    8.7343 C   0  0  0  0  0  0  0  0  0  0  0  0
   13.0475    3.6892   10.3204 H   0  0  0  0  0  0  0  0  0  0  0  0
   12.0538    2.2193    9.8152 H   0  0  0  0  0  0  0  0  0  0  0  0
   13.2887    4.4164    8.1463 H   0  0  0  0  0  0  0  0  0  0  0  0
   13.6926    2.6920    8.1756 H   0  0  0  0  0  0  0  0  0  0  0  0
   11.4070    1.6289    5.8433 H   0  0  0  0  0  0  0  0  0  0  0  0
   12.3646    1.0986    7.3249 H   0  0  0  0  0  0  0  0  0  0  0  0
   13.1856    2.0600    5.9889 H   0  0  0  0  0  0  0  0  0  0  0  0
   10.0294    2.2100    7.2267 H   0  0  0  0  0  0  0  0  0  0  0  0
   10.0748    3.8669    6.6109 H   0  0  0  0  0  0  0  0  0  0  0  0
    9.4323    2.9066    9.2827 H   0  0  0  0  0  0  0  0  0  0  0  0
    9.2838    4.5300    8.6117 H   0  0  0  0  0  0  0  0  0  0  0  0
  1  3  2  0
  1  4  1  0
  2  4  1  0
  1  5  1  0
  2  6  1  0
  5  6  1  0
  6  7  2  3
  5  8  1  0
  4 10  1  0
 10 11  2  0
 11 12  1  0
 12 13  2  0
 13 14  1  0
 10 15  1  0
 14 15  2  0
  9 16  2  0
  9 17  1  0
 14 18  1  0
 17 18  2  0
 18 19  1  0
 16 20  1  0
 19 20  2  0
  2 21  1  0
  7 22  1  0
  8 23  1  0
  8 24  1  0
  8 25  1  0
 11 26  1  0
 12 27  1  0
 13 28  1  0
 15 29  1  0
 16 30  1  0
 17 31  1  0
 19 32  1  0
 20 33  1  0
 34 35  2  0
 34 36  1  0
 36 37  1  0
 37 38  1  0
 38 39  1  0
 39 40  1  0
 39 41  1  0
 41 42  1  0
 42 36  1  0
 37 43  1  0
 37 44  1  0
 38 45  1  0
 38 46  1  0
 40 47  1  0
 40 48  1  0
 40 49  1  0
 41 50  1  0
 41 51  1  0
 42 52  1  0
 42 53  1  0
  4 34  1  6
M  END
>  <attachment_point>  (182) 
21

>  <score>  (182) 
<NA>

$$$$
4djw
     RDKit          3D

 41 44  0  0  0  0  0  0  0  0999 V2000
   22.4950   11.8750   22.5810 C   0  0  0  0  0  0  0  0  0  0  0  0
   22.5380    9.4930   22.4640 N   0  0  0  0  0  0  0  0  0  0  0  0
   22.3600   13.0630   22.3480 O   0  0  0  0  0  0  0  0  0  0  0  0
   22.3390   10.6680   21.5610 C   0  0  2  0  0  0  0  0  0  0  0  0
   22.7860   11.3350   23.8120 N   0  0  0  0  0  0  0  0  0  0  0  0
   22.7800    9.9140   23.7010 C   0  0  0  0  0  0  0  0  0  0  0  0
   22.9970    9.1110   24.7490 N   0  0  0  0  0  0  0  0  0  0  0  0
   23.0220   12.1410   25.0180 C   0  0  0  0  0  0  0  0  0  0  0  0
   29.1260    9.8230   21.7090 N   0  0  0  0  0  0  0  0  0  0  0  0
   23.4880   10.6920   20.5300 C   0  0  0  0  0  0  0  0  0  0  0  0
   23.2110   10.7890   19.1730 C   0  0  0  0  0  0  0  0  0  0  0  0
   24.2350   10.8650   18.2430 C   0  0  0  0  0  0  0  0  0  0  0  0
   25.5500   10.8410   18.6560 C   0  0  0  0  0  0  0  0  0  0  0  0
   25.8710   10.7460   20.0070 C   0  0  0  0  0  0  0  0  0  0  0  0
   24.8260   10.6610   20.9430 C   0  0  0  0  0  0  0  0  0  0  0  0
   29.8540   10.9130   21.4510 C   0  0  0  0  0  0  0  0  0  0  0  0
   27.8830    9.7800   21.2080 C   0  0  0  0  0  0  0  0  0  0  0  0
   27.3000   10.8010   20.4650 C   0  0  0  0  0  0  0  0  0  0  0  0
   28.0930   11.9190   20.2200 C   0  0  0  0  0  0  0  0  0  0  0  0
   29.3850   11.9780   20.7130 C   0  0  0  0  0  0  0  0  0  0  0  0
    0.0000    0.0000    0.0000 H   0  0  0  0  0  0  0  0  0  0  0  0
    0.0000    0.0000    0.0000 H   0  0  0  0  0  0  0  0  0  0  0  0
    0.0000    0.0000    0.0000 H   0  0  0  0  0  0  0  0  0  0  0  0
    0.0000    0.0000    0.0000 H   0  0  0  0  0  0  0  0  0  0  0  0
    0.0000    0.0000    0.0000 H   0  0  0  0  0  0  0  0  0  0  0  0
    0.0000    0.0000    0.0000 H   0  0  0  0  0  0  0  0  0  0  0  0
    0.0000    0.0000    0.0000 H   0  0  0  0  0  0  0  0  0  0  0  0
    0.0000    0.0000    0.0000 H   0  0  0  0  0  0  0  0  0  0  0  0
    0.0000    0.0000    0.0000 H   0  0  0  0  0  0  0  0  0  0  0  0
    0.0000    0.0000    0.0000 H   0  0  0  0  0  0  0  0  0  0  0  0
    0.0000    0.0000    0.0000 H   0  0  0  0  0  0  0  0  0  0  0  0
    0.0000    0.0000    0.0000 H   0  0  0  0  0  0  0  0  0  0  0  0
    0.0000    0.0000    0.0000 H   0  0  0  0  0  0  0  0  0  0  0  0
   10.8866    5.1989   10.5075 N   0  0  0  0  0  0  0  0  0  0  0  0
   10.9347    4.0863    9.7655 C   0  0  0  0  0  0  0  0  0  0  0  0
    9.8112    3.9814    8.9808 C   0  0  0  0  0  0  0  0  0  0  0  0
    9.0646    5.0995    9.2842 C   0  0  0  0  0  0  0  0  0  0  0  0
    9.7516    5.7955   10.2027 N   0  0  0  0  0  0  0  0  0  0  0  0
   11.7489    3.3677    9.7824 H   0  0  0  0  0  0  0  0  0  0  0  0
    9.5218    3.2260    8.2732 H   0  0  0  0  0  0  0  0  0  0  0  0
    8.0876    5.3877    8.8652 H   0  0  0  0  0  0  0  0  0  0  0  0
  1  3  2  0
  1  4  1  0
  2  4  1  0
  1  5  1  0
  2  6  1  0
  5  6  1  0
  6  7  2  3
  5  8  1  0
  4 10  1  0
 10 11  2  0
 11 12  1  0
 12 13  2  0
 13 14  1  0
 10 15  1  0
 14 15  2  0
  9 16  2  0
  9 17  1  0
 14 18  1  0
 17 18  2  0
 18 19  1  0
 16 20  1  0
 19 20  2  0
  2 21  1  0
  7 22  1  0
  8 23  1  0
  8 24  1  0
  8 25  1  0
 11 26  1  0
 12 27  1  0
 13 28  1  0
 15 29  1  0
 16 30  1  0
 17 31  1  0
 19 32  1  0
 20 33  1  0
 34 35  1  0
 35 36  2  0
 36 37  1  0
 37 38  2  0
 38 34  1  0
 35 39  1  0
 36 40  1  0
 37 41  1  0
  4 34  1  6
M  END
>  <attachment_point>  (183) 
21

>  <score>  (183) 
<NA>

$$$$
4djw
     RDKit          3D

 45 48  0  0  0  0  0  0  0  0999 V2000
   22.4950   11.8750   22.5810 C   0  0  0  0  0  0  0  0  0  0  0  0
   22.5380    9.4930   22.4640 N   0  0  0  0  0  0  0  0  0  0  0  0
   22.3600   13.0630   22.3480 O   0  0  0  0  0  0  0  0  0  0  0  0
   22.3390   10.6680   21.5610 C   0  0  2  0  0  0  0  0  0  0  0  0
   22.7860   11.3350   23.8120 N   0  0  0  0  0  0  0  0  0  0  0  0
   22.7800    9.9140   23.7010 C   0  0  0  0  0  0  0  0  0  0  0  0
   22.9970    9.1110   24.7490 N   0  0  0  0  0  0  0  0  0  0  0  0
   23.0220   12.1410   25.0180 C   0  0  0  0  0  0  0  0  0  0  0  0
   29.1260    9.8230   21.7090 N   0  0  0  0  0  0  0  0  0  0  0  0
   23.4880   10.6920   20.5300 C   0  0  0  0  0  0  0  0  0  0  0  0
   23.2110   10.7890   19.1730 C   0  0  0  0  0  0  0  0  0  0  0  0
   24.2350   10.8650   18.2430 C   0  0  0  0  0  0  0  0  0  0  0  0
   25.5500   10.8410   18.6560 C   0  0  0  0  0  0  0  0  0  0  0  0
   25.8710   10.7460   20.0070 C   0  0  0  0  0  0  0  0  0  0  0  0
   24.8260   10.6610   20.9430 C   0  0  0  0  0  0  0  0  0  0  0  0
   29.8540   10.9130   21.4510 C   0  0  0  0  0  0  0  0  0  0  0  0
   27.8830    9.7800   21.2080 C   0  0  0  0  0  0  0  0  0  0  0  0
   27.3000   10.8010   20.4650 C   0  0  0  0  0  0  0  0  0  0  0  0
   28.0930   11.9190   20.2200 C   0  0  0  0  0  0  0  0  0  0  0  0
   29.3850   11.9780   20.7130 C   0  0  0  0  0  0  0  0  0  0  0  0
    0.0000    0.0000    0.0000 H   0  0  0  0  0  0  0  0  0  0  0  0
    0.0000    0.0000    0.0000 H   0  0  0  0  0  0  0  0  0  0  0  0
    0.0000    0.0000    0.0000 H   0  0  0  0  0  0  0  0  0  0  0  0
    0.0000    0.0000    0.0000 H   0  0  0  0  0  0  0  0  0  0  0  0
    0.0000    0.0000    0.0000 H   0  0  0  0  0  0  0  0  0  0  0  0
    0.0000    0.0000    0.0000 H   0  0  0  0  0  0  0  0  0  0  0  0
    0.0000    0.0000    0.0000 H   0  0  0  0  0  0  0  0  0  0  0  0
    0.0000    0.0000    0.0000 H   0  0  0  0  0  0  0  0  0  0  0  0
    0.0000    0.0000    0.0000 H   0  0  0  0  0  0  0  0  0  0  0  0
    0.0000    0.0000    0.0000 H   0  0  0  0  0  0  0  0  0  0  0  0
    0.0000    0.0000    0.0000 H   0  0  0  0  0  0  0  0  0  0  0  0
    0.0000    0.0000    0.0000 H   0  0  0  0  0  0  0  0  0  0  0  0
    0.0000    0.0000    0.0000 H   0  0  0  0  0  0  0  0  0  0  0  0
   10.9405    5.2246   10.5594 S   0  0  0  0  0  0  0  0  0  0  0  0
   11.0574    4.4177    8.9889 C   0  0  0  0  0  0  0  0  0  0  0  0
    9.9179    4.0739    8.2800 C   0  0  0  0  0  0  0  0  0  0  0  0
   10.0017    3.4460    7.0576 C   0  0  0  0  0  0  0  0  0  0  0  0
   11.2620    3.1553    6.5326 C   0  0  0  0  0  0  0  0  0  0  0  0
   12.3849    3.5045    7.2516 C   0  0  0  0  0  0  0  0  0  0  0  0
   12.3253    4.1369    8.4832 C   0  0  0  0  0  0  0  0  0  0  0  0
    8.9258    4.2841    8.6569 H   0  0  0  0  0  0  0  0  0  0  0  0
    9.1449    3.1566    6.4644 H   0  0  0  0  0  0  0  0  0  0  0  0
   11.3626    2.6543    5.5584 H   0  0  0  0  0  0  0  0  0  0  0  0
   13.3550    3.2901    6.8657 H   0  0  0  0  0  0  0  0  0  0  0  0
   13.2266    4.4003    9.0273 H   0  0  0  0  0  0  0  0  0  0  0  0
  1  3  2  0
  1  4  1  0
  2  4  1  0
  1  5  1  0
  2  6  1  0
  5  6  1  0
  6  7  2  3
  5  8  1  0
  4 10  1  0
 10 11  2  0
 11 12  1  0
 12 13  2  0
 13 14  1  0
 10 15  1  0
 14 15  2  0
  9 16  2  0
  9 17  1  0
 14 18  1  0
 17 18  2  0
 18 19  1  0
 16 20  1  0
 19 20  2  0
  2 21  1  0
  7 22  1  0
  8 23  1  0
  8 24  1  0
  8 25  1  0
 11 26  1  0
 12 27  1  0
 13 28  1  0
 15 29  1  0
 16 30  1  0
 17 31  1  0
 19 32  1  0
 20 33  1  0
 34 35  1  0
 35 36  2  0
 36 37  1  0
 37 38  2  0
 38 39  1  0
 39 40  2  0
 40 35  1  0
 36 41  1  0
 37 42  1  0
 38 43  1  0
 39 44  1  0
 40 45  1  0
  4 34  1  6
M  END
>  <attachment_point>  (184) 
21

>  <score>  (184) 
<NA>

$$$$
4djw
     RDKit          3D

 41 43  0  0  0  0  0  0  0  0999 V2000
   22.4950   11.8750   22.5810 C   0  0  0  0  0  0  0  0  0  0  0  0
   22.5380    9.4930   22.4640 N   0  0  0  0  0  0  0  0  0  0  0  0
   22.3600   13.0630   22.3480 O   0  0  0  0  0  0  0  0  0  0  0  0
   22.3390   10.6680   21.5610 C   0  0  2  0  0  0  0  0  0  0  0  0
   22.7860   11.3350   23.8120 N   0  0  0  0  0  0  0  0  0  0  0  0
   22.7800    9.9140   23.7010 C   0  0  0  0  0  0  0  0  0  0  0  0
   22.9970    9.1110   24.7490 N   0  0  0  0  0  0  0  0  0  0  0  0
   23.0220   12.1410   25.0180 C   0  0  0  0  0  0  0  0  0  0  0  0
   29.1260    9.8230   21.7090 N   0  0  0  0  0  0  0  0  0  0  0  0
   23.4880   10.6920   20.5300 C   0  0  0  0  0  0  0  0  0  0  0  0
   23.2110   10.7890   19.1730 C   0  0  0  0  0  0  0  0  0  0  0  0
   24.2350   10.8650   18.2430 C   0  0  0  0  0  0  0  0  0  0  0  0
   25.5500   10.8410   18.6560 C   0  0  0  0  0  0  0  0  0  0  0  0
   25.8710   10.7460   20.0070 C   0  0  0  0  0  0  0  0  0  0  0  0
   24.8260   10.6610   20.9430 C   0  0  0  0  0  0  0  0  0  0  0  0
   29.8540   10.9130   21.4510 C   0  0  0  0  0  0  0  0  0  0  0  0
   27.8830    9.7800   21.2080 C   0  0  0  0  0  0  0  0  0  0  0  0
   27.3000   10.8010   20.4650 C   0  0  0  0  0  0  0  0  0  0  0  0
   28.0930   11.9190   20.2200 C   0  0  0  0  0  0  0  0  0  0  0  0
   29.3850   11.9780   20.7130 C   0  0  0  0  0  0  0  0  0  0  0  0
    0.0000    0.0000    0.0000 H   0  0  0  0  0  0  0  0  0  0  0  0
    0.0000    0.0000    0.0000 H   0  0  0  0  0  0  0  0  0  0  0  0
    0.0000    0.0000    0.0000 H   0  0  0  0  0  0  0  0  0  0  0  0
    0.0000    0.0000    0.0000 H   0  0  0  0  0  0  0  0  0  0  0  0
    0.0000    0.0000    0.0000 H   0  0  0  0  0  0  0  0  0  0  0  0
    0.0000    0.0000    0.0000 H   0  0  0  0  0  0  0  0  0  0  0  0
    0.0000    0.0000    0.0000 H   0  0  0  0  0  0  0  0  0  0  0  0
    0.0000    0.0000    0.0000 H   0  0  0  0  0  0  0  0  0  0  0  0
    0.0000    0.0000    0.0000 H   0  0  0  0  0  0  0  0  0  0  0  0
    0.0000    0.0000    0.0000 H   0  0  0  0  0  0  0  0  0  0  0  0
    0.0000    0.0000    0.0000 H   0  0  0  0  0  0  0  0  0  0  0  0
    0.0000    0.0000    0.0000 H   0  0  0  0  0  0  0  0  0  0  0  0
    0.0000    0.0000    0.0000 H   0  0  0  0  0  0  0  0  0  0  0  0
   10.9412    5.2250   10.5602 N   0  0  0  0  0  0  0  0  0  0  0  0
   11.2114    5.6409    8.9089 S   0  0  0  0  0  6  0  0  0  0  0  0
   12.7240    4.9098    8.4503 N   0  0  0  0  0  0  0  0  0  0  0  0
   10.1142    5.1373    8.0119 O   0  0  0  0  0  0  0  0  0  0  0  0
   11.3478    7.1279    8.8348 O   0  0  0  0  0  0  0  0  0  0  0  0
   10.3131    4.4138   10.6117 H   0  0  0  0  0  0  0  0  0  0  0  0
   12.9541    5.1229    7.4642 H   0  0  0  0  0  0  0  0  0  0  0  0
   13.4179    5.2282    9.1431 H   0  0  0  0  0  0  0  0  0  0  0  0
  1  3  2  0
  1  4  1  0
  2  4  1  0
  1  5  1  0
  2  6  1  0
  5  6  1  0
  6  7  2  3
  5  8  1  0
  4 10  1  0
 10 11  2  0
 11 12  1  0
 12 13  2  0
 13 14  1  0
 10 15  1  0
 14 15  2  0
  9 16  2  0
  9 17  1  0
 14 18  1  0
 17 18  2  0
 18 19  1  0
 16 20  1  0
 19 20  2  0
  2 21  1  0
  7 22  1  0
  8 23  1  0
  8 24  1  0
  8 25  1  0
 11 26  1  0
 12 27  1  0
 13 28  1  0
 15 29  1  0
 16 30  1  0
 17 31  1  0
 19 32  1  0
 20 33  1  0
 34 35  1  0
 35 36  1  0
 35 37  2  0
 35 38  2  0
 34 39  1  0
 36 40  1  0
 36 41  1  0
  4 34  1  6
M  END
>  <attachment_point>  (185) 
21

>  <score>  (185) 
<NA>

$$$$
4djw
     RDKit          3D

 50 53  0  0  0  0  0  0  0  0999 V2000
   22.4950   11.8750   22.5810 C   0  0  0  0  0  0  0  0  0  0  0  0
   22.5380    9.4930   22.4640 N   0  0  0  0  0  0  0  0  0  0  0  0
   22.3600   13.0630   22.3480 O   0  0  0  0  0  0  0  0  0  0  0  0
   22.3390   10.6680   21.5610 C   0  0  2  0  0  0  0  0  0  0  0  0
   22.7860   11.3350   23.8120 N   0  0  0  0  0  0  0  0  0  0  0  0
   22.7800    9.9140   23.7010 C   0  0  0  0  0  0  0  0  0  0  0  0
   22.9970    9.1110   24.7490 N   0  0  0  0  0  0  0  0  0  0  0  0
   23.0220   12.1410   25.0180 C   0  0  0  0  0  0  0  0  0  0  0  0
   29.1260    9.8230   21.7090 N   0  0  0  0  0  0  0  0  0  0  0  0
   23.4880   10.6920   20.5300 C   0  0  0  0  0  0  0  0  0  0  0  0
   23.2110   10.7890   19.1730 C   0  0  0  0  0  0  0  0  0  0  0  0
   24.2350   10.8650   18.2430 C   0  0  0  0  0  0  0  0  0  0  0  0
   25.5500   10.8410   18.6560 C   0  0  0  0  0  0  0  0  0  0  0  0
   25.8710   10.7460   20.0070 C   0  0  0  0  0  0  0  0  0  0  0  0
   24.8260   10.6610   20.9430 C   0  0  0  0  0  0  0  0  0  0  0  0
   29.8540   10.9130   21.4510 C   0  0  0  0  0  0  0  0  0  0  0  0
   27.8830    9.7800   21.2080 C   0  0  0  0  0  0  0  0  0  0  0  0
   27.3000   10.8010   20.4650 C   0  0  0  0  0  0  0  0  0  0  0  0
   28.0930   11.9190   20.2200 C   0  0  0  0  0  0  0  0  0  0  0  0
   29.3850   11.9780   20.7130 C   0  0  0  0  0  0  0  0  0  0  0  0
    0.0000    0.0000    0.0000 H   0  0  0  0  0  0  0  0  0  0  0  0
    0.0000    0.0000    0.0000 H   0  0  0  0  0  0  0  0  0  0  0  0
    0.0000    0.0000    0.0000 H   0  0  0  0  0  0  0  0  0  0  0  0
    0.0000    0.0000    0.0000 H   0  0  0  0  0  0  0  0  0  0  0  0
    0.0000    0.0000    0.0000 H   0  0  0  0  0  0  0  0  0  0  0  0
    0.0000    0.0000    0.0000 H   0  0  0  0  0  0  0  0  0  0  0  0
    0.0000    0.0000    0.0000 H   0  0  0  0  0  0  0  0  0  0  0  0
    0.0000    0.0000    0.0000 H   0  0  0  0  0  0  0  0  0  0  0  0
    0.0000    0.0000    0.0000 H   0  0  0  0  0  0  0  0  0  0  0  0
    0.0000    0.0000    0.0000 H   0  0  0  0  0  0  0  0  0  0  0  0
    0.0000    0.0000    0.0000 H   0  0  0  0  0  0  0  0  0  0  0  0
    0.0000    0.0000    0.0000 H   0  0  0  0  0  0  0  0  0  0  0  0
    0.0000    0.0000    0.0000 H   0  0  0  0  0  0  0  0  0  0  0  0
   10.7864    5.1511   10.4108 N   0  0  0  0  0  0  0  0  0  0  0  0
   11.1012    3.9021   10.0000 C   0  0  0  0  0  0  0  0  0  0  0  0
   10.5418    2.7368   10.5433 C   0  0  0  0  0  0  0  0  0  0  0  0
   10.8909    1.4890   10.1241 C   0  0  0  0  0  0  0  0  0  0  0  0
   11.8231    1.2786    9.1315 C   0  0  0  0  0  0  0  0  0  0  0  0
   12.1594   -0.0140    8.7266 O   0  0  0  0  0  0  0  0  0  0  0  0
   13.1122   -0.2486    7.7188 C   0  0  0  0  0  0  0  0  0  0  0  0
   12.3934    2.3980    8.5725 C   0  0  0  0  0  0  0  0  0  0  0  0
   12.0501    3.6492    8.9850 C   0  0  0  0  0  0  0  0  0  0  0  0
   10.1947    5.8691   10.3576 H   0  0  0  0  0  0  0  0  0  0  0  0
    9.8028    2.9082   11.3343 H   0  0  0  0  0  0  0  0  0  0  0  0
   10.4258    0.6173   10.5813 H   0  0  0  0  0  0  0  0  0  0  0  0
   14.1615   -0.2244    8.1448 H   0  0  0  0  0  0  0  0  0  0  0  0
   13.0013    0.4283    6.8508 H   0  0  0  0  0  0  0  0  0  0  0  0
   12.9824   -1.2928    7.3033 H   0  0  0  0  0  0  0  0  0  0  0  0
   13.1219    2.2256    7.7895 H   0  0  0  0  0  0  0  0  0  0  0  0
   12.5096    4.5417    8.5368 H   0  0  0  0  0  0  0  0  0  0  0  0
  1  3  2  0
  1  4  1  0
  2  4  1  0
  1  5  1  0
  2  6  1  0
  5  6  1  0
  6  7  2  3
  5  8  1  0
  4 10  1  0
 10 11  2  0
 11 12  1  0
 12 13  2  0
 13 14  1  0
 10 15  1  0
 14 15  2  0
  9 16  2  0
  9 17  1  0
 14 18  1  0
 17 18  2  0
 18 19  1  0
 16 20  1  0
 19 20  2  0
  2 21  1  0
  7 22  1  0
  8 23  1  0
  8 24  1  0
  8 25  1  0
 11 26  1  0
 12 27  1  0
 13 28  1  0
 15 29  1  0
 16 30  1  0
 17 31  1  0
 19 32  1  0
 20 33  1  0
 34 35  1  0
 35 36  2  0
 36 37  1  0
 37 38  2  0
 38 39  1  0
 39 40  1  0
 38 41  1  0
 41 42  2  0
 42 35  1  0
 34 43  1  0
 36 44  1  0
 37 45  1  0
 40 46  1  0
 40 47  1  0
 40 48  1  0
 41 49  1  0
 42 50  1  0
  4 34  1  6
M  END
>  <attachment_point>  (186) 
21

>  <score>  (186) 
<NA>

$$$$
4djw
     RDKit          3D

 47 50  0  0  0  0  0  0  0  0999 V2000
   22.4950   11.8750   22.5810 C   0  0  0  0  0  0  0  0  0  0  0  0
   22.5380    9.4930   22.4640 N   0  0  0  0  0  0  0  0  0  0  0  0
   22.3600   13.0630   22.3480 O   0  0  0  0  0  0  0  0  0  0  0  0
   22.3390   10.6680   21.5610 C   0  0  2  0  0  0  0  0  0  0  0  0
   22.7860   11.3350   23.8120 N   0  0  0  0  0  0  0  0  0  0  0  0
   22.7800    9.9140   23.7010 C   0  0  0  0  0  0  0  0  0  0  0  0
   22.9970    9.1110   24.7490 N   0  0  0  0  0  0  0  0  0  0  0  0
   23.0220   12.1410   25.0180 C   0  0  0  0  0  0  0  0  0  0  0  0
   29.1260    9.8230   21.7090 N   0  0  0  0  0  0  0  0  0  0  0  0
   23.4880   10.6920   20.5300 C   0  0  0  0  0  0  0  0  0  0  0  0
   23.2110   10.7890   19.1730 C   0  0  0  0  0  0  0  0  0  0  0  0
   24.2350   10.8650   18.2430 C   0  0  0  0  0  0  0  0  0  0  0  0
   25.5500   10.8410   18.6560 C   0  0  0  0  0  0  0  0  0  0  0  0
   25.8710   10.7460   20.0070 C   0  0  0  0  0  0  0  0  0  0  0  0
   24.8260   10.6610   20.9430 C   0  0  0  0  0  0  0  0  0  0  0  0
   29.8540   10.9130   21.4510 C   0  0  0  0  0  0  0  0  0  0  0  0
   27.8830    9.7800   21.2080 C   0  0  0  0  0  0  0  0  0  0  0  0
   27.3000   10.8010   20.4650 C   0  0  0  0  0  0  0  0  0  0  0  0
   28.0930   11.9190   20.2200 C   0  0  0  0  0  0  0  0  0  0  0  0
   29.3850   11.9780   20.7130 C   0  0  0  0  0  0  0  0  0  0  0  0
    0.0000    0.0000    0.0000 H   0  0  0  0  0  0  0  0  0  0  0  0
    0.0000    0.0000    0.0000 H   0  0  0  0  0  0  0  0  0  0  0  0
    0.0000    0.0000    0.0000 H   0  0  0  0  0  0  0  0  0  0  0  0
    0.0000    0.0000    0.0000 H   0  0  0  0  0  0  0  0  0  0  0  0
    0.0000    0.0000    0.0000 H   0  0  0  0  0  0  0  0  0  0  0  0
    0.0000    0.0000    0.0000 H   0  0  0  0  0  0  0  0  0  0  0  0
    0.0000    0.0000    0.0000 H   0  0  0  0  0  0  0  0  0  0  0  0
    0.0000    0.0000    0.0000 H   0  0  0  0  0  0  0  0  0  0  0  0
    0.0000    0.0000    0.0000 H   0  0  0  0  0  0  0  0  0  0  0  0
    0.0000    0.0000    0.0000 H   0  0  0  0  0  0  0  0  0  0  0  0
    0.0000    0.0000    0.0000 H   0  0  0  0  0  0  0  0  0  0  0  0
    0.0000    0.0000    0.0000 H   0  0  0  0  0  0  0  0  0  0  0  0
    0.0000    0.0000    0.0000 H   0  0  0  0  0  0  0  0  0  0  0  0
   10.7469    5.1322   10.3726 C   0  0  0  0  0  0  0  0  0  0  0  0
   10.6122    3.8358   10.9875 C   0  0  0  0  0  0  0  0  0  0  0  0
    9.6786    3.6228   11.9791 C   0  0  0  0  0  0  0  0  0  0  0  0
    9.5191    2.3888   12.5951 C   0  0  0  0  0  0  0  0  0  0  0  0
   10.3298    1.3256   12.1992 C   0  0  0  0  0  0  0  0  0  0  0  0
   10.1022   -0.2108   12.9942 Cl  0  0  0  0  0  0  0  0  0  0  0  0
   11.2642    1.5375   11.2070 C   0  0  0  0  0  0  0  0  0  0  0  0
   11.4018    2.7742   10.6115 C   0  0  0  0  0  0  0  0  0  0  0  0
   10.1279    5.9325   10.7016 H   0  0  0  0  0  0  0  0  0  0  0  0
   11.4954    5.2858    9.6310 H   0  0  0  0  0  0  0  0  0  0  0  0
    9.0122    4.4143   12.3354 H   0  0  0  0  0  0  0  0  0  0  0  0
    8.7695    2.2381   13.3839 H   0  0  0  0  0  0  0  0  0  0  0  0
   11.8734    0.6919   10.9269 H   0  0  0  0  0  0  0  0  0  0  0  0
   12.1297    2.9410    9.8379 H   0  0  0  0  0  0  0  0  0  0  0  0
  1  3  2  0
  1  4  1  0
  2  4  1  0
  1  5  1  0
  2  6  1  0
  5  6  1  0
  6  7  2  3
  5  8  1  0
  4 10  1  0
 10 11  2  0
 11 12  1  0
 12 13  2  0
 13 14  1  0
 10 15  1  0
 14 15  2  0
  9 16  2  0
  9 17  1  0
 14 18  1  0
 17 18  2  0
 18 19  1  0
 16 20  1  0
 19 20  2  0
  2 21  1  0
  7 22  1  0
  8 23  1  0
  8 24  1  0
  8 25  1  0
 11 26  1  0
 12 27  1  0
 13 28  1  0
 15 29  1  0
 16 30  1  0
 17 31  1  0
 19 32  1  0
 20 33  1  0
 34 35  1  0
 35 36  2  0
 36 37  1  0
 37 38  2  0
 38 39  1  0
 38 40  1  0
 40 41  2  0
 41 35  1  0
 34 42  1  0
 34 43  1  0
 36 44  1  0
 37 45  1  0
 40 46  1  0
 41 47  1  0
  4 34  1  6
M  END
>  <attachment_point>  (187) 
21

>  <score>  (187) 
<NA>

$$$$
4djw
     RDKit          3D

 45 47  0  0  0  0  0  0  0  0999 V2000
   22.4950   11.8750   22.5810 C   0  0  0  0  0  0  0  0  0  0  0  0
   22.5380    9.4930   22.4640 N   0  0  0  0  0  0  0  0  0  0  0  0
   22.3600   13.0630   22.3480 O   0  0  0  0  0  0  0  0  0  0  0  0
   22.3390   10.6680   21.5610 C   0  0  2  0  0  0  0  0  0  0  0  0
   22.7860   11.3350   23.8120 N   0  0  0  0  0  0  0  0  0  0  0  0
   22.7800    9.9140   23.7010 C   0  0  0  0  0  0  0  0  0  0  0  0
   22.9970    9.1110   24.7490 N   0  0  0  0  0  0  0  0  0  0  0  0
   23.0220   12.1410   25.0180 C   0  0  0  0  0  0  0  0  0  0  0  0
   29.1260    9.8230   21.7090 N   0  0  0  0  0  0  0  0  0  0  0  0
   23.4880   10.6920   20.5300 C   0  0  0  0  0  0  0  0  0  0  0  0
   23.2110   10.7890   19.1730 C   0  0  0  0  0  0  0  0  0  0  0  0
   24.2350   10.8650   18.2430 C   0  0  0  0  0  0  0  0  0  0  0  0
   25.5500   10.8410   18.6560 C   0  0  0  0  0  0  0  0  0  0  0  0
   25.8710   10.7460   20.0070 C   0  0  0  0  0  0  0  0  0  0  0  0
   24.8260   10.6610   20.9430 C   0  0  0  0  0  0  0  0  0  0  0  0
   29.8540   10.9130   21.4510 C   0  0  0  0  0  0  0  0  0  0  0  0
   27.8830    9.7800   21.2080 C   0  0  0  0  0  0  0  0  0  0  0  0
   27.3000   10.8010   20.4650 C   0  0  0  0  0  0  0  0  0  0  0  0
   28.0930   11.9190   20.2200 C   0  0  0  0  0  0  0  0  0  0  0  0
   29.3850   11.9780   20.7130 C   0  0  0  0  0  0  0  0  0  0  0  0
    0.0000    0.0000    0.0000 H   0  0  0  0  0  0  0  0  0  0  0  0
    0.0000    0.0000    0.0000 H   0  0  0  0  0  0  0  0  0  0  0  0
    0.0000    0.0000    0.0000 H   0  0  0  0  0  0  0  0  0  0  0  0
    0.0000    0.0000    0.0000 H   0  0  0  0  0  0  0  0  0  0  0  0
    0.0000    0.0000    0.0000 H   0  0  0  0  0  0  0  0  0  0  0  0
    0.0000    0.0000    0.0000 H   0  0  0  0  0  0  0  0  0  0  0  0
    0.0000    0.0000    0.0000 H   0  0  0  0  0  0  0  0  0  0  0  0
    0.0000    0.0000    0.0000 H   0  0  0  0  0  0  0  0  0  0  0  0
    0.0000    0.0000    0.0000 H   0  0  0  0  0  0  0  0  0  0  0  0
    0.0000    0.0000    0.0000 H   0  0  0  0  0  0  0  0  0  0  0  0
    0.0000    0.0000    0.0000 H   0  0  0  0  0  0  0  0  0  0  0  0
    0.0000    0.0000    0.0000 H   0  0  0  0  0  0  0  0  0  0  0  0
    0.0000    0.0000    0.0000 H   0  0  0  0  0  0  0  0  0  0  0  0
   10.8908    5.2009   10.5115 C   0  0  0  0  0  0  0  0  0  0  0  0
    9.7915    6.2304   10.3273 C   0  0  0  0  0  0  0  0  0  0  0  0
   10.3764    7.5220    9.8156 C   0  0  0  0  0  0  0  0  0  0  0  0
   11.3390    8.0228   10.7592 N   0  0  0  0  0  0  0  0  0  0  0  0
   10.4726    4.2147   10.7668 H   0  0  0  0  0  0  0  0  0  0  0  0
   11.3721    5.0762    9.5009 H   0  0  0  0  0  0  0  0  0  0  0  0
    9.1126    5.8312    9.5459 H   0  0  0  0  0  0  0  0  0  0  0  0
    9.2097    6.3743   11.2537 H   0  0  0  0  0  0  0  0  0  0  0  0
   10.8142    7.3044    8.8159 H   0  0  0  0  0  0  0  0  0  0  0  0
    9.5797    8.2749    9.7150 H   0  0  0  0  0  0  0  0  0  0  0  0
   12.1710    7.4102   10.8760 H   0  0  0  0  0  0  0  0  0  0  0  0
   11.5753    9.0256   10.6373 H   0  0  0  0  0  0  0  0  0  0  0  0
  1  3  2  0
  1  4  1  0
  2  4  1  0
  1  5  1  0
  2  6  1  0
  5  6  1  0
  6  7  2  3
  5  8  1  0
  4 10  1  0
 10 11  2  0
 11 12  1  0
 12 13  2  0
 13 14  1  0
 10 15  1  0
 14 15  2  0
  9 16  2  0
  9 17  1  0
 14 18  1  0
 17 18  2  0
 18 19  1  0
 16 20  1  0
 19 20  2  0
  2 21  1  0
  7 22  1  0
  8 23  1  0
  8 24  1  0
  8 25  1  0
 11 26  1  0
 12 27  1  0
 13 28  1  0
 15 29  1  0
 16 30  1  0
 17 31  1  0
 19 32  1  0
 20 33  1  0
 34 35  1  0
 35 36  1  0
 36 37  1  0
 34 38  1  0
 34 39  1  0
 35 40  1  0
 35 41  1  0
 36 42  1  0
 36 43  1  0
 37 44  1  0
 37 45  1  0
  4 34  1  6
M  END
>  <attachment_point>  (188) 
21

>  <score>  (188) 
<NA>

$$$$
4djw
     RDKit          3D

 49 52  0  0  0  0  0  0  0  0999 V2000
   22.4950   11.8750   22.5810 C   0  0  0  0  0  0  0  0  0  0  0  0
   22.5380    9.4930   22.4640 N   0  0  0  0  0  0  0  0  0  0  0  0
   22.3600   13.0630   22.3480 O   0  0  0  0  0  0  0  0  0  0  0  0
   22.3390   10.6680   21.5610 C   0  0  2  0  0  0  0  0  0  0  0  0
   22.7860   11.3350   23.8120 N   0  0  0  0  0  0  0  0  0  0  0  0
   22.7800    9.9140   23.7010 C   0  0  0  0  0  0  0  0  0  0  0  0
   22.9970    9.1110   24.7490 N   0  0  0  0  0  0  0  0  0  0  0  0
   23.0220   12.1410   25.0180 C   0  0  0  0  0  0  0  0  0  0  0  0
   29.1260    9.8230   21.7090 N   0  0  0  0  0  0  0  0  0  0  0  0
   23.4880   10.6920   20.5300 C   0  0  0  0  0  0  0  0  0  0  0  0
   23.2110   10.7890   19.1730 C   0  0  0  0  0  0  0  0  0  0  0  0
   24.2350   10.8650   18.2430 C   0  0  0  0  0  0  0  0  0  0  0  0
   25.5500   10.8410   18.6560 C   0  0  0  0  0  0  0  0  0  0  0  0
   25.8710   10.7460   20.0070 C   0  0  0  0  0  0  0  0  0  0  0  0
   24.8260   10.6610   20.9430 C   0  0  0  0  0  0  0  0  0  0  0  0
   29.8540   10.9130   21.4510 C   0  0  0  0  0  0  0  0  0  0  0  0
   27.8830    9.7800   21.2080 C   0  0  0  0  0  0  0  0  0  0  0  0
   27.3000   10.8010   20.4650 C   0  0  0  0  0  0  0  0  0  0  0  0
   28.0930   11.9190   20.2200 C   0  0  0  0  0  0  0  0  0  0  0  0
   29.3850   11.9780   20.7130 C   0  0  0  0  0  0  0  0  0  0  0  0
    0.0000    0.0000    0.0000 H   0  0  0  0  0  0  0  0  0  0  0  0
    0.0000    0.0000    0.0000 H   0  0  0  0  0  0  0  0  0  0  0  0
    0.0000    0.0000    0.0000 H   0  0  0  0  0  0  0  0  0  0  0  0
    0.0000    0.0000    0.0000 H   0  0  0  0  0  0  0  0  0  0  0  0
    0.0000    0.0000    0.0000 H   0  0  0  0  0  0  0  0  0  0  0  0
    0.0000    0.0000    0.0000 H   0  0  0  0  0  0  0  0  0  0  0  0
    0.0000    0.0000    0.0000 H   0  0  0  0  0  0  0  0  0  0  0  0
    0.0000    0.0000    0.0000 H   0  0  0  0  0  0  0  0  0  0  0  0
    0.0000    0.0000    0.0000 H   0  0  0  0  0  0  0  0  0  0  0  0
    0.0000    0.0000    0.0000 H   0  0  0  0  0  0  0  0  0  0  0  0
    0.0000    0.0000    0.0000 H   0  0  0  0  0  0  0  0  0  0  0  0
    0.0000    0.0000    0.0000 H   0  0  0  0  0  0  0  0  0  0  0  0
    0.0000    0.0000    0.0000 H   0  0  0  0  0  0  0  0  0  0  0  0
   10.8159    5.1651   10.4392 N   0  0  0  0  0  0  0  0  0  0  0  0
   11.4884    6.0050    9.0840 S   0  0  0  0  0  6  0  0  0  0  0  0
   10.6719    5.6437    7.9038 O   0  0  0  0  0  0  0  0  0  0  0  0
   12.9091    5.5924    8.8232 O   0  0  0  0  0  0  0  0  0  0  0  0
   11.4460    7.7311    9.3852 C   0  0  0  0  0  0  0  0  0  0  0  0
   10.3464    8.4584    9.0015 C   0  0  0  0  0  0  0  0  0  0  0  0
   10.3348    9.8141    9.2483 C   0  0  0  0  0  0  0  0  0  0  0  0
   11.4273   10.4029    9.8735 C   0  0  0  0  0  0  0  0  0  0  0  0
   12.5299    9.6713   10.2577 C   0  0  0  0  0  0  0  0  0  0  0  0
   12.5333    8.3176   10.0074 C   0  0  0  0  0  0  0  0  0  0  0  0
   10.0628    5.7266   10.8965 H   0  0  0  0  0  0  0  0  0  0  0  0
    9.5103    7.9586    8.5140 H   0  0  0  0  0  0  0  0  0  0  0  0
    9.4613   10.3732    8.9401 H   0  0  0  0  0  0  0  0  0  0  0  0
   11.4218   11.4680   10.0690 H   0  0  0  0  0  0  0  0  0  0  0  0
   13.3959   10.0971   10.7456 H   0  0  0  0  0  0  0  0  0  0  0  0
   13.3937    7.7382   10.3056 H   0  0  0  0  0  0  0  0  0  0  0  0
  1  3  2  0
  1  4  1  0
  2  4  1  0
  1  5  1  0
  2  6  1  0
  5  6  1  0
  6  7  2  3
  5  8  1  0
  4 10  1  0
 10 11  2  0
 11 12  1  0
 12 13  2  0
 13 14  1  0
 10 15  1  0
 14 15  2  0
  9 16  2  0
  9 17  1  0
 14 18  1  0
 17 18  2  0
 18 19  1  0
 16 20  1  0
 19 20  2  0
  2 21  1  0
  7 22  1  0
  8 23  1  0
  8 24  1  0
  8 25  1  0
 11 26  1  0
 12 27  1  0
 13 28  1  0
 15 29  1  0
 16 30  1  0
 17 31  1  0
 19 32  1  0
 20 33  1  0
 34 35  1  0
 35 36  2  0
 35 37  2  0
 35 38  1  0
 38 39  2  0
 39 40  1  0
 40 41  2  0
 41 42  1  0
 42 43  2  0
 43 38  1  0
 34 44  1  0
 39 45  1  0
 40 46  1  0
 41 47  1  0
 42 48  1  0
 43 49  1  0
  4 34  1  6
M  END
>  <attachment_point>  (189) 
21

>  <score>  (189) 
<NA>

$$$$
4djw
     RDKit          3D

 51 54  0  0  0  0  0  0  0  0999 V2000
   22.4950   11.8750   22.5810 C   0  0  0  0  0  0  0  0  0  0  0  0
   22.5380    9.4930   22.4640 N   0  0  0  0  0  0  0  0  0  0  0  0
   22.3600   13.0630   22.3480 O   0  0  0  0  0  0  0  0  0  0  0  0
   22.3390   10.6680   21.5610 C   0  0  2  0  0  0  0  0  0  0  0  0
   22.7860   11.3350   23.8120 N   0  0  0  0  0  0  0  0  0  0  0  0
   22.7800    9.9140   23.7010 C   0  0  0  0  0  0  0  0  0  0  0  0
   22.9970    9.1110   24.7490 N   0  0  0  0  0  0  0  0  0  0  0  0
   23.0220   12.1410   25.0180 C   0  0  0  0  0  0  0  0  0  0  0  0
   29.1260    9.8230   21.7090 N   0  0  0  0  0  0  0  0  0  0  0  0
   23.4880   10.6920   20.5300 C   0  0  0  0  0  0  0  0  0  0  0  0
   23.2110   10.7890   19.1730 C   0  0  0  0  0  0  0  0  0  0  0  0
   24.2350   10.8650   18.2430 C   0  0  0  0  0  0  0  0  0  0  0  0
   25.5500   10.8410   18.6560 C   0  0  0  0  0  0  0  0  0  0  0  0
   25.8710   10.7460   20.0070 C   0  0  0  0  0  0  0  0  0  0  0  0
   24.8260   10.6610   20.9430 C   0  0  0  0  0  0  0  0  0  0  0  0
   29.8540   10.9130   21.4510 C   0  0  0  0  0  0  0  0  0  0  0  0
   27.8830    9.7800   21.2080 C   0  0  0  0  0  0  0  0  0  0  0  0
   27.3000   10.8010   20.4650 C   0  0  0  0  0  0  0  0  0  0  0  0
   28.0930   11.9190   20.2200 C   0  0  0  0  0  0  0  0  0  0  0  0
   29.3850   11.9780   20.7130 C   0  0  0  0  0  0  0  0  0  0  0  0
    0.0000    0.0000    0.0000 H   0  0  0  0  0  0  0  0  0  0  0  0
    0.0000    0.0000    0.0000 H   0  0  0  0  0  0  0  0  0  0  0  0
    0.0000    0.0000    0.0000 H   0  0  0  0  0  0  0  0  0  0  0  0
    0.0000    0.0000    0.0000 H   0  0  0  0  0  0  0  0  0  0  0  0
    0.0000    0.0000    0.0000 H   0  0  0  0  0  0  0  0  0  0  0  0
    0.0000    0.0000    0.0000 H   0  0  0  0  0  0  0  0  0  0  0  0
    0.0000    0.0000    0.0000 H   0  0  0  0  0  0  0  0  0  0  0  0
    0.0000    0.0000    0.0000 H   0  0  0  0  0  0  0  0  0  0  0  0
    0.0000    0.0000    0.0000 H   0  0  0  0  0  0  0  0  0  0  0  0
    0.0000    0.0000    0.0000 H   0  0  0  0  0  0  0  0  0  0  0  0
    0.0000    0.0000    0.0000 H   0  0  0  0  0  0  0  0  0  0  0  0
    0.0000    0.0000    0.0000 H   0  0  0  0  0  0  0  0  0  0  0  0
    0.0000    0.0000    0.0000 H   0  0  0  0  0  0  0  0  0  0  0  0
   10.8784    5.1950   10.4996 C   0  0  0  0  0  0  0  0  0  0  0  0
    9.6837    4.6887   10.9659 C   0  0  0  0  0  0  0  0  0  0  0  0
    8.6937    4.2195   10.0991 C   0  0  0  0  0  0  0  0  0  0  0  0
    8.9559    4.2815    8.7539 C   0  0  0  0  0  0  0  0  0  0  0  0
    8.0357    3.8424    7.8620 O   0  0  0  0  0  0  0  0  0  0  0  0
    6.7754    3.2995    8.0689 C   0  0  0  0  0  0  0  0  0  0  0  0
    5.9184    4.3112    8.7954 C   0  0  0  0  0  0  0  0  0  0  0  0
   10.1519    4.7889    8.3020 C   0  0  0  0  0  0  0  0  0  0  0  0
   11.1385    5.2557    9.1485 C   0  0  0  0  0  0  0  0  0  0  0  0
    9.4538    4.6296   12.0244 H   0  0  0  0  0  0  0  0  0  0  0  0
    7.7652    3.8267   10.5178 H   0  0  0  0  0  0  0  0  0  0  0  0
    6.3113    3.1370    7.0736 H   0  0  0  0  0  0  0  0  0  0  0  0
    6.7908    2.3210    8.5977 H   0  0  0  0  0  0  0  0  0  0  0  0
    6.5200    5.2288    9.0305 H   0  0  0  0  0  0  0  0  0  0  0  0
    5.5016    3.8974    9.7395 H   0  0  0  0  0  0  0  0  0  0  0  0
    5.1027    4.6549    8.1409 H   0  0  0  0  0  0  0  0  0  0  0  0
   10.3634    4.8392    7.2257 H   0  0  0  0  0  0  0  0  0  0  0  0
   12.0834    5.6555    8.7611 H   0  0  0  0  0  0  0  0  0  0  0  0
  1  3  2  0
  1  4  1  0
  2  4  1  0
  1  5  1  0
  2  6  1  0
  5  6  1  0
  6  7  2  3
  5  8  1  0
  4 10  1  6
 10 11  2  0
 11 12  1  0
 12 13  2  0
 13 14  1  0
 10 15  1  0
 14 15  2  0
  9 16  2  0
  9 17  1  0
 14 18  1  0
 17 18  2  0
 18 19  1  0
 16 20  1  0
 19 20  2  0
  2 21  1  0
  7 22  1  0
  8 23  1  0
  8 24  1  0
  8 25  1  0
 11 26  1  0
 12 27  1  0
 13 28  1  0
 15 29  1  0
 16 30  1  0
 17 31  1  0
 19 32  1  0
 20 33  1  0
 34 35  2  0
 35 36  1  0
 36 37  2  0
 37 38  1  0
 38 39  1  0
 39 40  1  0
 37 41  1  0
 41 42  2  0
 42 34  1  0
 35 43  1  0
 36 44  1  0
 39 45  1  0
 39 46  1  0
 40 47  1  0
 40 48  1  0
 40 49  1  0
 41 50  1  0
 42 51  1  0
  4 34  1  0
M  END
>  <attachment_point>  (190) 
21

>  <score>  (190) 
<NA>

$$$$
4djw
     RDKit          3D

 43 46  0  0  0  0  0  0  0  0999 V2000
   22.4950   11.8750   22.5810 C   0  0  0  0  0  0  0  0  0  0  0  0
   22.5380    9.4930   22.4640 N   0  0  0  0  0  0  0  0  0  0  0  0
   22.3600   13.0630   22.3480 O   0  0  0  0  0  0  0  0  0  0  0  0
   22.3390   10.6680   21.5610 C   0  0  2  0  0  0  0  0  0  0  0  0
   22.7860   11.3350   23.8120 N   0  0  0  0  0  0  0  0  0  0  0  0
   22.7800    9.9140   23.7010 C   0  0  0  0  0  0  0  0  0  0  0  0
   22.9970    9.1110   24.7490 N   0  0  0  0  0  0  0  0  0  0  0  0
   23.0220   12.1410   25.0180 C   0  0  0  0  0  0  0  0  0  0  0  0
   29.1260    9.8230   21.7090 N   0  0  0  0  0  0  0  0  0  0  0  0
   23.4880   10.6920   20.5300 C   0  0  0  0  0  0  0  0  0  0  0  0
   23.2110   10.7890   19.1730 C   0  0  0  0  0  0  0  0  0  0  0  0
   24.2350   10.8650   18.2430 C   0  0  0  0  0  0  0  0  0  0  0  0
   25.5500   10.8410   18.6560 C   0  0  0  0  0  0  0  0  0  0  0  0
   25.8710   10.7460   20.0070 C   0  0  0  0  0  0  0  0  0  0  0  0
   24.8260   10.6610   20.9430 C   0  0  0  0  0  0  0  0  0  0  0  0
   29.8540   10.9130   21.4510 C   0  0  0  0  0  0  0  0  0  0  0  0
   27.8830    9.7800   21.2080 C   0  0  0  0  0  0  0  0  0  0  0  0
   27.3000   10.8010   20.4650 C   0  0  0  0  0  0  0  0  0  0  0  0
   28.0930   11.9190   20.2200 C   0  0  0  0  0  0  0  0  0  0  0  0
   29.3850   11.9780   20.7130 C   0  0  0  0  0  0  0  0  0  0  0  0
    0.0000    0.0000    0.0000 H   0  0  0  0  0  0  0  0  0  0  0  0
    0.0000    0.0000    0.0000 H   0  0  0  0  0  0  0  0  0  0  0  0
    0.0000    0.0000    0.0000 H   0  0  0  0  0  0  0  0  0  0  0  0
    0.0000    0.0000    0.0000 H   0  0  0  0  0  0  0  0  0  0  0  0
    0.0000    0.0000    0.0000 H   0  0  0  0  0  0  0  0  0  0  0  0
    0.0000    0.0000    0.0000 H   0  0  0  0  0  0  0  0  0  0  0  0
    0.0000    0.0000    0.0000 H   0  0  0  0  0  0  0  0  0  0  0  0
    0.0000    0.0000    0.0000 H   0  0  0  0  0  0  0  0  0  0  0  0
    0.0000    0.0000    0.0000 H   0  0  0  0  0  0  0  0  0  0  0  0
    0.0000    0.0000    0.0000 H   0  0  0  0  0  0  0  0  0  0  0  0
    0.0000    0.0000    0.0000 H   0  0  0  0  0  0  0  0  0  0  0  0
    0.0000    0.0000    0.0000 H   0  0  0  0  0  0  0  0  0  0  0  0
    0.0000    0.0000    0.0000 H   0  0  0  0  0  0  0  0  0  0  0  0
   10.8714    5.1917   10.4928 C   0  0  0  0  0  0  0  0  0  0  0  0
    9.6013    5.3881   10.6633 C   0  0  0  0  0  0  0  0  0  0  0  0
    8.8549    6.2361   12.0370 S   0  0  0  0  0  0  0  0  0  0  0  0
    7.1535    6.0323   11.4603 C   0  0  0  0  0  0  0  0  0  0  0  0
    5.8198    6.5800   12.2410 S   0  0  0  0  0  0  0  0  0  0  0  0
    7.2520    5.3301   10.2497 N   0  0  0  0  0  0  0  0  0  0  0  0
    8.5166    4.9803    9.8082 C   0  0  0  0  0  0  0  0  0  0  0  0
    8.7402    4.3395    8.7212 O   0  0  0  0  0  0  0  0  0  0  0  0
   11.3144    4.6689    9.6438 H   0  0  0  0  0  0  0  0  0  0  0  0
    6.3511    5.0965    9.7227 H   0  0  0  0  0  0  0  0  0  0  0  0
  1  3  2  0
  1  4  1  0
  2  4  1  0
  1  5  1  0
  2  6  1  0
  5  6  1  0
  6  7  2  3
  5  8  1  0
  4 10  1  6
 10 11  2  0
 11 12  1  0
 12 13  2  0
 13 14  1  0
 10 15  1  0
 14 15  2  0
  9 16  2  0
  9 17  1  0
 14 18  1  0
 17 18  2  0
 18 19  1  0
 16 20  1  0
 19 20  2  0
  2 21  1  0
  7 22  1  0
  8 23  1  0
  8 24  1  0
  8 25  1  0
 11 26  1  0
 12 27  1  0
 13 28  1  0
 15 29  1  0
 16 30  1  0
 17 31  1  0
 19 32  1  0
 20 33  1  0
 34 35  2  3
 35 36  1  0
 36 37  1  0
 37 38  2  0
 37 39  1  0
 39 40  1  0
 40 41  2  0
 40 35  1  0
 34 42  1  0
 39 43  1  0
  4 34  1  0
M  END
>  <attachment_point>  (191) 
21

>  <score>  (191) 
<NA>

$$$$
4djw
     RDKit          3D

 48 52  0  0  0  0  0  0  0  0999 V2000
   22.4950   11.8750   22.5810 C   0  0  0  0  0  0  0  0  0  0  0  0
   22.5380    9.4930   22.4640 N   0  0  0  0  0  0  0  0  0  0  0  0
   22.3600   13.0630   22.3480 O   0  0  0  0  0  0  0  0  0  0  0  0
   22.3390   10.6680   21.5610 C   0  0  2  0  0  0  0  0  0  0  0  0
   22.7860   11.3350   23.8120 N   0  0  0  0  0  0  0  0  0  0  0  0
   22.7800    9.9140   23.7010 C   0  0  0  0  0  0  0  0  0  0  0  0
   22.9970    9.1110   24.7490 N   0  0  0  0  0  0  0  0  0  0  0  0
   23.0220   12.1410   25.0180 C   0  0  0  0  0  0  0  0  0  0  0  0
   29.1260    9.8230   21.7090 N   0  0  0  0  0  0  0  0  0  0  0  0
   23.4880   10.6920   20.5300 C   0  0  0  0  0  0  0  0  0  0  0  0
   23.2110   10.7890   19.1730 C   0  0  0  0  0  0  0  0  0  0  0  0
   24.2350   10.8650   18.2430 C   0  0  0  0  0  0  0  0  0  0  0  0
   25.5500   10.8410   18.6560 C   0  0  0  0  0  0  0  0  0  0  0  0
   25.8710   10.7460   20.0070 C   0  0  0  0  0  0  0  0  0  0  0  0
   24.8260   10.6610   20.9430 C   0  0  0  0  0  0  0  0  0  0  0  0
   29.8540   10.9130   21.4510 C   0  0  0  0  0  0  0  0  0  0  0  0
   27.8830    9.7800   21.2080 C   0  0  0  0  0  0  0  0  0  0  0  0
   27.3000   10.8010   20.4650 C   0  0  0  0  0  0  0  0  0  0  0  0
   28.0930   11.9190   20.2200 C   0  0  0  0  0  0  0  0  0  0  0  0
   29.3850   11.9780   20.7130 C   0  0  0  0  0  0  0  0  0  0  0  0
    0.0000    0.0000    0.0000 H   0  0  0  0  0  0  0  0  0  0  0  0
    0.0000    0.0000    0.0000 H   0  0  0  0  0  0  0  0  0  0  0  0
    0.0000    0.0000    0.0000 H   0  0  0  0  0  0  0  0  0  0  0  0
    0.0000    0.0000    0.0000 H   0  0  0  0  0  0  0  0  0  0  0  0
    0.0000    0.0000    0.0000 H   0  0  0  0  0  0  0  0  0  0  0  0
    0.0000    0.0000    0.0000 H   0  0  0  0  0  0  0  0  0  0  0  0
    0.0000    0.0000    0.0000 H   0  0  0  0  0  0  0  0  0  0  0  0
    0.0000    0.0000    0.0000 H   0  0  0  0  0  0  0  0  0  0  0  0
    0.0000    0.0000    0.0000 H   0  0  0  0  0  0  0  0  0  0  0  0
    0.0000    0.0000    0.0000 H   0  0  0  0  0  0  0  0  0  0  0  0
    0.0000    0.0000    0.0000 H   0  0  0  0  0  0  0  0  0  0  0  0
    0.0000    0.0000    0.0000 H   0  0  0  0  0  0  0  0  0  0  0  0
    0.0000    0.0000    0.0000 H   0  0  0  0  0  0  0  0  0  0  0  0
   10.8365    5.1750   10.4591 C   0  0  0  0  0  0  0  0  0  0  0  0
   10.1611    6.0502    9.6894 C   0  0  0  0  0  0  0  0  0  0  0  0
    9.2224    5.5153    8.7921 C   0  0  0  0  0  0  0  0  0  0  0  0
    8.9890    4.1505    8.6904 C   0  0  0  0  0  0  0  0  0  0  0  0
    8.1698    3.4017    7.9352 N   0  0  0  0  0  0  0  0  0  0  0  0
    8.3250    2.1038    8.2201 C   0  0  0  0  0  0  0  0  0  0  0  0
    9.2861    2.0362    9.1995 C   0  0  0  0  0  0  0  0  0  0  0  0
    9.7089    3.3057    9.5022 C   0  0  0  0  0  0  0  0  0  0  0  0
   10.6597    3.8321   10.4125 C   0  0  0  0  0  0  0  0  0  0  0  0
   10.2846    7.1220    9.7088 H   0  0  0  0  0  0  0  0  0  0  0  0
    8.6635    6.1775    8.1613 H   0  0  0  0  0  0  0  0  0  0  0  0
    7.5133    3.8011    7.2314 H   0  0  0  0  0  0  0  0  0  0  0  0
    7.7869    1.2517    7.7595 H   0  0  0  0  0  0  0  0  0  0  0  0
    9.6816    1.1562    9.6865 H   0  0  0  0  0  0  0  0  0  0  0  0
   11.1955    3.1397   11.0231 H   0  0  0  0  0  0  0  0  0  0  0  0
  1  3  2  0
  1  4  1  0
  2  4  1  0
  1  5  1  0
  2  6  1  0
  5  6  1  0
  6  7  2  3
  5  8  1  0
  4 10  1  6
 10 11  2  0
 11 12  1  0
 12 13  2  0
 13 14  1  0
 10 15  1  0
 14 15  2  0
  9 16  2  0
  9 17  1  0
 14 18  1  0
 17 18  2  0
 18 19  1  0
 16 20  1  0
 19 20  2  0
  2 21  1  0
  7 22  1  0
  8 23  1  0
  8 24  1  0
  8 25  1  0
 11 26  1  0
 12 27  1  0
 13 28  1  0
 15 29  1  0
 16 30  1  0
 17 31  1  0
 19 32  1  0
 20 33  1  0
 34 35  2  0
 35 36  1  0
 36 37  2  0
 37 38  1  0
 38 39  1  0
 39 40  2  0
 40 41  1  0
 41 42  2  0
 42 34  1  0
 41 37  1  0
 35 43  1  0
 36 44  1  0
 38 45  1  0
 39 46  1  0
 40 47  1  0
 42 48  1  0
  4 34  1  0
M  END
>  <attachment_point>  (192) 
21

>  <score>  (192) 
<NA>

$$$$
4djw
     RDKit          3D

 43 45  0  0  0  0  0  0  0  0999 V2000
   22.4950   11.8750   22.5810 C   0  0  0  0  0  0  0  0  0  0  0  0
   22.5380    9.4930   22.4640 N   0  0  0  0  0  0  0  0  0  0  0  0
   22.3600   13.0630   22.3480 O   0  0  0  0  0  0  0  0  0  0  0  0
   22.3390   10.6680   21.5610 C   0  0  2  0  0  0  0  0  0  0  0  0
   22.7860   11.3350   23.8120 N   0  0  0  0  0  0  0  0  0  0  0  0
   22.7800    9.9140   23.7010 C   0  0  0  0  0  0  0  0  0  0  0  0
   22.9970    9.1110   24.7490 N   0  0  0  0  0  0  0  0  0  0  0  0
   23.0220   12.1410   25.0180 C   0  0  0  0  0  0  0  0  0  0  0  0
   29.1260    9.8230   21.7090 N   0  0  0  0  0  0  0  0  0  0  0  0
   23.4880   10.6920   20.5300 C   0  0  0  0  0  0  0  0  0  0  0  0
   23.2110   10.7890   19.1730 C   0  0  0  0  0  0  0  0  0  0  0  0
   24.2350   10.8650   18.2430 C   0  0  0  0  0  0  0  0  0  0  0  0
   25.5500   10.8410   18.6560 C   0  0  0  0  0  0  0  0  0  0  0  0
   25.8710   10.7460   20.0070 C   0  0  0  0  0  0  0  0  0  0  0  0
   24.8260   10.6610   20.9430 C   0  0  0  0  0  0  0  0  0  0  0  0
   29.8540   10.9130   21.4510 C   0  0  0  0  0  0  0  0  0  0  0  0
   27.8830    9.7800   21.2080 C   0  0  0  0  0  0  0  0  0  0  0  0
   27.3000   10.8010   20.4650 C   0  0  0  0  0  0  0  0  0  0  0  0
   28.0930   11.9190   20.2200 C   0  0  0  0  0  0  0  0  0  0  0  0
   29.3850   11.9780   20.7130 C   0  0  0  0  0  0  0  0  0  0  0  0
    0.0000    0.0000    0.0000 H   0  0  0  0  0  0  0  0  0  0  0  0
    0.0000    0.0000    0.0000 H   0  0  0  0  0  0  0  0  0  0  0  0
    0.0000    0.0000    0.0000 H   0  0  0  0  0  0  0  0  0  0  0  0
    0.0000    0.0000    0.0000 H   0  0  0  0  0  0  0  0  0  0  0  0
    0.0000    0.0000    0.0000 H   0  0  0  0  0  0  0  0  0  0  0  0
    0.0000    0.0000    0.0000 H   0  0  0  0  0  0  0  0  0  0  0  0
    0.0000    0.0000    0.0000 H   0  0  0  0  0  0  0  0  0  0  0  0
    0.0000    0.0000    0.0000 H   0  0  0  0  0  0  0  0  0  0  0  0
    0.0000    0.0000    0.0000 H   0  0  0  0  0  0  0  0  0  0  0  0
    0.0000    0.0000    0.0000 H   0  0  0  0  0  0  0  0  0  0  0  0
    0.0000    0.0000    0.0000 H   0  0  0  0  0  0  0  0  0  0  0  0
    0.0000    0.0000    0.0000 H   0  0  0  0  0  0  0  0  0  0  0  0
    0.0000    0.0000    0.0000 H   0  0  0  0  0  0  0  0  0  0  0  0
   10.8741    5.1929   10.4953 O   0  0  0  0  0  0  0  0  0  0  0  0
    9.9148    6.2011   10.6489 C   0  0  0  0  0  0  0  0  0  0  0  0
    8.7517    5.9114    9.7223 C   0  0  0  0  0  0  0  0  0  0  0  0
    7.7916    6.9664    9.9098 N   0  0  0  0  0  0  0  0  0  0  0  0
   10.3347    7.2042   10.4495 H   0  0  0  0  0  0  0  0  0  0  0  0
    9.5189    6.0953   11.6855 H   0  0  0  0  0  0  0  0  0  0  0  0
    8.3429    4.9139   10.0342 H   0  0  0  0  0  0  0  0  0  0  0  0
    9.0925    5.8549    8.6583 H   0  0  0  0  0  0  0  0  0  0  0  0
    6.9150    6.6769   10.3473 H   0  0  0  0  0  0  0  0  0  0  0  0
    7.7356    7.6476    9.1504 H   0  0  0  0  0  0  0  0  0  0  0  0
  1  3  2  0
  1  4  1  0
  2  4  1  0
  1  5  1  0
  2  6  1  0
  5  6  1  0
  6  7  2  3
  5  8  1  0
  4 10  1  0
 10 11  2  0
 11 12  1  0
 12 13  2  0
 13 14  1  0
 10 15  1  0
 14 15  2  0
  9 16  2  0
  9 17  1  0
 14 18  1  0
 17 18  2  0
 18 19  1  0
 16 20  1  0
 19 20  2  0
  2 21  1  0
  7 22  1  0
  8 23  1  0
  8 24  1  0
  8 25  1  0
 11 26  1  0
 12 27  1  0
 13 28  1  0
 15 29  1  0
 16 30  1  0
 17 31  1  0
 19 32  1  0
 20 33  1  0
 34 35  1  0
 35 36  1  0
 36 37  1  0
 35 38  1  0
 35 39  1  0
 36 40  1  0
 36 41  1  0
 37 42  1  0
 37 43  1  0
  4 34  1  6
M  END
>  <attachment_point>  (193) 
21

>  <score>  (193) 
<NA>

$$$$
4djw
     RDKit          3D

 45 47  0  0  0  0  0  0  0  0999 V2000
   22.4950   11.8750   22.5810 C   0  0  0  0  0  0  0  0  0  0  0  0
   22.5380    9.4930   22.4640 N   0  0  0  0  0  0  0  0  0  0  0  0
   22.3600   13.0630   22.3480 O   0  0  0  0  0  0  0  0  0  0  0  0
   22.3390   10.6680   21.5610 C   0  0  2  0  0  0  0  0  0  0  0  0
   22.7860   11.3350   23.8120 N   0  0  0  0  0  0  0  0  0  0  0  0
   22.7800    9.9140   23.7010 C   0  0  0  0  0  0  0  0  0  0  0  0
   22.9970    9.1110   24.7490 N   0  0  0  0  0  0  0  0  0  0  0  0
   23.0220   12.1410   25.0180 C   0  0  0  0  0  0  0  0  0  0  0  0
   29.1260    9.8230   21.7090 N   0  0  0  0  0  0  0  0  0  0  0  0
   23.4880   10.6920   20.5300 C   0  0  0  0  0  0  0  0  0  0  0  0
   23.2110   10.7890   19.1730 C   0  0  0  0  0  0  0  0  0  0  0  0
   24.2350   10.8650   18.2430 C   0  0  0  0  0  0  0  0  0  0  0  0
   25.5500   10.8410   18.6560 C   0  0  0  0  0  0  0  0  0  0  0  0
   25.8710   10.7460   20.0070 C   0  0  0  0  0  0  0  0  0  0  0  0
   24.8260   10.6610   20.9430 C   0  0  0  0  0  0  0  0  0  0  0  0
   29.8540   10.9130   21.4510 C   0  0  0  0  0  0  0  0  0  0  0  0
   27.8830    9.7800   21.2080 C   0  0  0  0  0  0  0  0  0  0  0  0
   27.3000   10.8010   20.4650 C   0  0  0  0  0  0  0  0  0  0  0  0
   28.0930   11.9190   20.2200 C   0  0  0  0  0  0  0  0  0  0  0  0
   29.3850   11.9780   20.7130 C   0  0  0  0  0  0  0  0  0  0  0  0
    0.0000    0.0000    0.0000 H   0  0  0  0  0  0  0  0  0  0  0  0
    0.0000    0.0000    0.0000 H   0  0  0  0  0  0  0  0  0  0  0  0
    0.0000    0.0000    0.0000 H   0  0  0  0  0  0  0  0  0  0  0  0
    0.0000    0.0000    0.0000 H   0  0  0  0  0  0  0  0  0  0  0  0
    0.0000    0.0000    0.0000 H   0  0  0  0  0  0  0  0  0  0  0  0
    0.0000    0.0000    0.0000 H   0  0  0  0  0  0  0  0  0  0  0  0
    0.0000    0.0000    0.0000 H   0  0  0  0  0  0  0  0  0  0  0  0
    0.0000    0.0000    0.0000 H   0  0  0  0  0  0  0  0  0  0  0  0
    0.0000    0.0000    0.0000 H   0  0  0  0  0  0  0  0  0  0  0  0
    0.0000    0.0000    0.0000 H   0  0  0  0  0  0  0  0  0  0  0  0
    0.0000    0.0000    0.0000 H   0  0  0  0  0  0  0  0  0  0  0  0
    0.0000    0.0000    0.0000 H   0  0  0  0  0  0  0  0  0  0  0  0
    0.0000    0.0000    0.0000 H   0  0  0  0  0  0  0  0  0  0  0  0
   10.8922    5.2016   10.5128 N   0  0  0  0  0  0  0  0  0  0  0  0
    9.8582    4.4149   11.1543 C   0  0  0  0  0  0  0  0  0  0  0  0
    9.1082    5.1916   12.2033 C   0  0  0  0  0  0  0  0  0  0  0  0
   10.0465    5.6675   13.2881 C   0  0  0  0  0  0  0  0  0  0  0  0
   10.5347    6.0275   10.0235 H   0  0  0  0  0  0  0  0  0  0  0  0
   10.3396    3.5521   11.6560 H   0  0  0  0  0  0  0  0  0  0  0  0
    9.1279    4.1146   10.3746 H   0  0  0  0  0  0  0  0  0  0  0  0
    8.5696    6.0571   11.7968 H   0  0  0  0  0  0  0  0  0  0  0  0
    8.3990    4.4846   12.6828 H   0  0  0  0  0  0  0  0  0  0  0  0
   10.9744    5.0717   13.2028 H   0  0  0  0  0  0  0  0  0  0  0  0
    9.6381    5.4750   14.3005 H   0  0  0  0  0  0  0  0  0  0  0  0
   10.2311    6.7536   13.2087 H   0  0  0  0  0  0  0  0  0  0  0  0
  1  3  2  0
  1  4  1  0
  2  4  1  0
  1  5  1  0
  2  6  1  0
  5  6  1  0
  6  7  2  3
  5  8  1  0
  4 10  1  0
 10 11  2  0
 11 12  1  0
 12 13  2  0
 13 14  1  0
 10 15  1  0
 14 15  2  0
  9 16  2  0
  9 17  1  0
 14 18  1  0
 17 18  2  0
 18 19  1  0
 16 20  1  0
 19 20  2  0
  2 21  1  0
  7 22  1  0
  8 23  1  0
  8 24  1  0
  8 25  1  0
 11 26  1  0
 12 27  1  0
 13 28  1  0
 15 29  1  0
 16 30  1  0
 17 31  1  0
 19 32  1  0
 20 33  1  0
 34 35  1  0
 35 36  1  0
 36 37  1  0
 34 38  1  0
 35 39  1  0
 35 40  1  0
 36 41  1  0
 36 42  1  0
 37 43  1  0
 37 44  1  0
 37 45  1  0
  4 34  1  6
M  END
>  <attachment_point>  (194) 
21

>  <score>  (194) 
<NA>

$$$$
4djw
     RDKit          3D

 48 51  0  0  0  0  0  0  0  0999 V2000
   22.4950   11.8750   22.5810 C   0  0  0  0  0  0  0  0  0  0  0  0
   22.5380    9.4930   22.4640 N   0  0  0  0  0  0  0  0  0  0  0  0
   22.3600   13.0630   22.3480 O   0  0  0  0  0  0  0  0  0  0  0  0
   22.3390   10.6680   21.5610 C   0  0  2  0  0  0  0  0  0  0  0  0
   22.7860   11.3350   23.8120 N   0  0  0  0  0  0  0  0  0  0  0  0
   22.7800    9.9140   23.7010 C   0  0  0  0  0  0  0  0  0  0  0  0
   22.9970    9.1110   24.7490 N   0  0  0  0  0  0  0  0  0  0  0  0
   23.0220   12.1410   25.0180 C   0  0  0  0  0  0  0  0  0  0  0  0
   29.1260    9.8230   21.7090 N   0  0  0  0  0  0  0  0  0  0  0  0
   23.4880   10.6920   20.5300 C   0  0  0  0  0  0  0  0  0  0  0  0
   23.2110   10.7890   19.1730 C   0  0  0  0  0  0  0  0  0  0  0  0
   24.2350   10.8650   18.2430 C   0  0  0  0  0  0  0  0  0  0  0  0
   25.5500   10.8410   18.6560 C   0  0  0  0  0  0  0  0  0  0  0  0
   25.8710   10.7460   20.0070 C   0  0  0  0  0  0  0  0  0  0  0  0
   24.8260   10.6610   20.9430 C   0  0  0  0  0  0  0  0  0  0  0  0
   29.8540   10.9130   21.4510 C   0  0  0  0  0  0  0  0  0  0  0  0
   27.8830    9.7800   21.2080 C   0  0  0  0  0  0  0  0  0  0  0  0
   27.3000   10.8010   20.4650 C   0  0  0  0  0  0  0  0  0  0  0  0
   28.0930   11.9190   20.2200 C   0  0  0  0  0  0  0  0  0  0  0  0
   29.3850   11.9780   20.7130 C   0  0  0  0  0  0  0  0  0  0  0  0
    0.0000    0.0000    0.0000 H   0  0  0  0  0  0  0  0  0  0  0  0
    0.0000    0.0000    0.0000 H   0  0  0  0  0  0  0  0  0  0  0  0
    0.0000    0.0000    0.0000 H   0  0  0  0  0  0  0  0  0  0  0  0
    0.0000    0.0000    0.0000 H   0  0  0  0  0  0  0  0  0  0  0  0
    0.0000    0.0000    0.0000 H   0  0  0  0  0  0  0  0  0  0  0  0
    0.0000    0.0000    0.0000 H   0  0  0  0  0  0  0  0  0  0  0  0
    0.0000    0.0000    0.0000 H   0  0  0  0  0  0  0  0  0  0  0  0
    0.0000    0.0000    0.0000 H   0  0  0  0  0  0  0  0  0  0  0  0
    0.0000    0.0000    0.0000 H   0  0  0  0  0  0  0  0  0  0  0  0
    0.0000    0.0000    0.0000 H   0  0  0  0  0  0  0  0  0  0  0  0
    0.0000    0.0000    0.0000 H   0  0  0  0  0  0  0  0  0  0  0  0
    0.0000    0.0000    0.0000 H   0  0  0  0  0  0  0  0  0  0  0  0
    0.0000    0.0000    0.0000 H   0  0  0  0  0  0  0  0  0  0  0  0
   10.8492    5.1810   10.4713 C   0  0  0  0  0  0  0  0  0  0  0  0
   10.2448    3.9701   10.7060 C   0  0  0  0  0  0  0  0  0  0  0  0
    9.3117    3.5644    9.7702 C   0  0  0  0  0  0  0  0  0  0  0  0
    8.9909    4.3273    8.6483 C   0  0  0  0  0  0  0  0  0  0  0  0
    8.0102    3.8895    7.6748 C   0  0  0  0  0  0  0  0  0  0  0  0
    7.3556    2.6487    7.8662 N   0  0  0  0  0  0  0  0  0  0  0  0
    7.7484    4.5980    6.6831 O   0  0  0  0  0  0  0  0  0  0  0  0
    9.6232    5.5377    8.4529 C   0  0  0  0  0  0  0  0  0  0  0  0
   10.5720    5.9691    9.3878 C   0  0  0  0  0  0  0  0  0  0  0  0
   10.5054    3.3903   11.5818 H   0  0  0  0  0  0  0  0  0  0  0  0
    8.8159    2.6332    9.9075 H   0  0  0  0  0  0  0  0  0  0  0  0
    7.8325    1.8324    8.3095 H   0  0  0  0  0  0  0  0  0  0  0  0
    6.3594    2.4802    7.5748 H   0  0  0  0  0  0  0  0  0  0  0  0
    9.4287    6.1847    7.6092 H   0  0  0  0  0  0  0  0  0  0  0  0
   11.0527    6.9194    9.2126 H   0  0  0  0  0  0  0  0  0  0  0  0
  1  3  2  0
  1  4  1  0
  2  4  1  0
  1  5  1  0
  2  6  1  0
  5  6  1  0
  6  7  2  3
  5  8  1  0
  4 10  1  6
 10 11  2  0
 11 12  1  0
 12 13  2  0
 13 14  1  0
 10 15  1  0
 14 15  2  0
  9 16  2  0
  9 17  1  0
 14 18  1  0
 17 18  2  0
 18 19  1  0
 16 20  1  0
 19 20  2  0
  2 21  1  0
  7 22  1  0
  8 23  1  0
  8 24  1  0
  8 25  1  0
 11 26  1  0
 12 27  1  0
 13 28  1  0
 15 29  1  0
 16 30  1  0
 17 31  1  0
 19 32  1  0
 20 33  1  0
 34 35  2  0
 35 36  1  0
 36 37  2  0
 37 38  1  0
 38 39  1  0
 38 40  2  0
 37 41  1  0
 41 42  2  0
 42 34  1  0
 35 43  1  0
 36 44  1  0
 39 45  1  0
 39 46  1  0
 41 47  1  0
 42 48  1  0
  4 34  1  0
M  END
>  <attachment_point>  (195) 
21

>  <score>  (195) 
<NA>

$$$$
4djw
     RDKit          3D

 44 46  0  0  0  0  0  0  0  0999 V2000
   22.4950   11.8750   22.5810 C   0  0  0  0  0  0  0  0  0  0  0  0
   22.5380    9.4930   22.4640 N   0  0  0  0  0  0  0  0  0  0  0  0
   22.3600   13.0630   22.3480 O   0  0  0  0  0  0  0  0  0  0  0  0
   22.3390   10.6680   21.5610 C   0  0  2  0  0  0  0  0  0  0  0  0
   22.7860   11.3350   23.8120 N   0  0  0  0  0  0  0  0  0  0  0  0
   22.7800    9.9140   23.7010 C   0  0  0  0  0  0  0  0  0  0  0  0
   22.9970    9.1110   24.7490 N   0  0  0  0  0  0  0  0  0  0  0  0
   23.0220   12.1410   25.0180 C   0  0  0  0  0  0  0  0  0  0  0  0
   29.1260    9.8230   21.7090 N   0  0  0  0  0  0  0  0  0  0  0  0
   23.4880   10.6920   20.5300 C   0  0  0  0  0  0  0  0  0  0  0  0
   23.2110   10.7890   19.1730 C   0  0  0  0  0  0  0  0  0  0  0  0
   24.2350   10.8650   18.2430 C   0  0  0  0  0  0  0  0  0  0  0  0
   25.5500   10.8410   18.6560 C   0  0  0  0  0  0  0  0  0  0  0  0
   25.8710   10.7460   20.0070 C   0  0  0  0  0  0  0  0  0  0  0  0
   24.8260   10.6610   20.9430 C   0  0  0  0  0  0  0  0  0  0  0  0
   29.8540   10.9130   21.4510 C   0  0  0  0  0  0  0  0  0  0  0  0
   27.8830    9.7800   21.2080 C   0  0  0  0  0  0  0  0  0  0  0  0
   27.3000   10.8010   20.4650 C   0  0  0  0  0  0  0  0  0  0  0  0
   28.0930   11.9190   20.2200 C   0  0  0  0  0  0  0  0  0  0  0  0
   29.3850   11.9780   20.7130 C   0  0  0  0  0  0  0  0  0  0  0  0
    0.0000    0.0000    0.0000 H   0  0  0  0  0  0  0  0  0  0  0  0
    0.0000    0.0000    0.0000 H   0  0  0  0  0  0  0  0  0  0  0  0
    0.0000    0.0000    0.0000 H   0  0  0  0  0  0  0  0  0  0  0  0
    0.0000    0.0000    0.0000 H   0  0  0  0  0  0  0  0  0  0  0  0
    0.0000    0.0000    0.0000 H   0  0  0  0  0  0  0  0  0  0  0  0
    0.0000    0.0000    0.0000 H   0  0  0  0  0  0  0  0  0  0  0  0
    0.0000    0.0000    0.0000 H   0  0  0  0  0  0  0  0  0  0  0  0
    0.0000    0.0000    0.0000 H   0  0  0  0  0  0  0  0  0  0  0  0
    0.0000    0.0000    0.0000 H   0  0  0  0  0  0  0  0  0  0  0  0
    0.0000    0.0000    0.0000 H   0  0  0  0  0  0  0  0  0  0  0  0
    0.0000    0.0000    0.0000 H   0  0  0  0  0  0  0  0  0  0  0  0
    0.0000    0.0000    0.0000 H   0  0  0  0  0  0  0  0  0  0  0  0
    0.0000    0.0000    0.0000 H   0  0  0  0  0  0  0  0  0  0  0  0
   10.8778    5.1947   10.4990 C   0  0  0  0  0  0  0  0  0  0  0  0
   11.4987    4.6553    9.2397 C   0  0  0  0  0  0  0  0  0  0  0  0
    9.9173    6.2923   10.0972 C   0  0  0  0  0  0  0  0  0  0  0  0
   10.1630    4.2023   11.1983 O   0  0  0  0  0  0  0  0  0  0  0  0
   11.2500    3.5925    9.1197 H   0  0  0  0  0  0  0  0  0  0  0  0
   12.5902    4.8606    9.2754 H   0  0  0  0  0  0  0  0  0  0  0  0
   11.1303    5.1757    8.3218 H   0  0  0  0  0  0  0  0  0  0  0  0
   10.1595    6.6879    9.0727 H   0  0  0  0  0  0  0  0  0  0  0  0
    9.9570    7.0755   10.8691 H   0  0  0  0  0  0  0  0  0  0  0  0
    8.8871    5.8584   10.0717 H   0  0  0  0  0  0  0  0  0  0  0  0
    9.4524    4.7038   11.7028 H   0  0  0  0  0  0  0  0  0  0  0  0
  1  3  2  0
  1  4  1  0
  2  4  1  0
  1  5  1  0
  2  6  1  0
  5  6  1  0
  6  7  2  3
  5  8  1  0
  4 10  1  0
 10 11  2  0
 11 12  1  0
 12 13  2  0
 13 14  1  0
 10 15  1  0
 14 15  2  0
  9 16  2  0
  9 17  1  0
 14 18  1  0
 17 18  2  0
 18 19  1  0
 16 20  1  0
 19 20  2  0
  2 21  1  0
  7 22  1  0
  8 23  1  0
  8 24  1  0
  8 25  1  0
 11 26  1  0
 12 27  1  0
 13 28  1  0
 15 29  1  0
 16 30  1  0
 17 31  1  0
 19 32  1  0
 20 33  1  0
 34 35  1  0
 34 36  1  0
 34 37  1  0
 35 38  1  0
 35 39  1  0
 35 40  1  0
 36 41  1  0
 36 42  1  0
 36 43  1  0
 37 44  1  0
  4 34  1  6
M  END
>  <attachment_point>  (196) 
21

>  <score>  (196) 
<NA>

$$$$
4djw
     RDKit          3D

 44 47  0  0  0  0  0  0  0  0999 V2000
   22.4950   11.8750   22.5810 C   0  0  0  0  0  0  0  0  0  0  0  0
   22.5380    9.4930   22.4640 N   0  0  0  0  0  0  0  0  0  0  0  0
   22.3600   13.0630   22.3480 O   0  0  0  0  0  0  0  0  0  0  0  0
   22.3390   10.6680   21.5610 C   0  0  2  0  0  0  0  0  0  0  0  0
   22.7860   11.3350   23.8120 N   0  0  0  0  0  0  0  0  0  0  0  0
   22.7800    9.9140   23.7010 C   0  0  0  0  0  0  0  0  0  0  0  0
   22.9970    9.1110   24.7490 N   0  0  0  0  0  0  0  0  0  0  0  0
   23.0220   12.1410   25.0180 C   0  0  0  0  0  0  0  0  0  0  0  0
   29.1260    9.8230   21.7090 N   0  0  0  0  0  0  0  0  0  0  0  0
   23.4880   10.6920   20.5300 C   0  0  0  0  0  0  0  0  0  0  0  0
   23.2110   10.7890   19.1730 C   0  0  0  0  0  0  0  0  0  0  0  0
   24.2350   10.8650   18.2430 C   0  0  0  0  0  0  0  0  0  0  0  0
   25.5500   10.8410   18.6560 C   0  0  0  0  0  0  0  0  0  0  0  0
   25.8710   10.7460   20.0070 C   0  0  0  0  0  0  0  0  0  0  0  0
   24.8260   10.6610   20.9430 C   0  0  0  0  0  0  0  0  0  0  0  0
   29.8540   10.9130   21.4510 C   0  0  0  0  0  0  0  0  0  0  0  0
   27.8830    9.7800   21.2080 C   0  0  0  0  0  0  0  0  0  0  0  0
   27.3000   10.8010   20.4650 C   0  0  0  0  0  0  0  0  0  0  0  0
   28.0930   11.9190   20.2200 C   0  0  0  0  0  0  0  0  0  0  0  0
   29.3850   11.9780   20.7130 C   0  0  0  0  0  0  0  0  0  0  0  0
    0.0000    0.0000    0.0000 H   0  0  0  0  0  0  0  0  0  0  0  0
    0.0000    0.0000    0.0000 H   0  0  0  0  0  0  0  0  0  0  0  0
    0.0000    0.0000    0.0000 H   0  0  0  0  0  0  0  0  0  0  0  0
    0.0000    0.0000    0.0000 H   0  0  0  0  0  0  0  0  0  0  0  0
    0.0000    0.0000    0.0000 H   0  0  0  0  0  0  0  0  0  0  0  0
    0.0000    0.0000    0.0000 H   0  0  0  0  0  0  0  0  0  0  0  0
    0.0000    0.0000    0.0000 H   0  0  0  0  0  0  0  0  0  0  0  0
    0.0000    0.0000    0.0000 H   0  0  0  0  0  0  0  0  0  0  0  0
    0.0000    0.0000    0.0000 H   0  0  0  0  0  0  0  0  0  0  0  0
    0.0000    0.0000    0.0000 H   0  0  0  0  0  0  0  0  0  0  0  0
    0.0000    0.0000    0.0000 H   0  0  0  0  0  0  0  0  0  0  0  0
    0.0000    0.0000    0.0000 H   0  0  0  0  0  0  0  0  0  0  0  0
    0.0000    0.0000    0.0000 H   0  0  0  0  0  0  0  0  0  0  0  0
   10.8703    5.1911   10.4918 C   0  0  0  0  0  0  0  0  0  0  0  0
   11.2601    4.6832    9.2666 C   0  0  0  0  0  0  0  0  0  0  0  0
   10.3094    4.2314    8.3546 C   0  0  0  0  0  0  0  0  0  0  0  0
    8.9671    4.2880    8.6686 C   0  0  0  0  0  0  0  0  0  0  0  0
    8.0541    3.8432    7.7674 F   0  0  0  0  0  0  0  0  0  0  0  0
    8.6247    4.7974    9.8905 C   0  0  0  0  0  0  0  0  0  0  0  0
    9.5378    5.2554   10.8223 C   0  0  0  0  0  0  0  0  0  0  0  0
    9.1440    5.7574   12.0345 F   0  0  0  0  0  0  0  0  0  0  0  0
   12.3063    4.6314    9.0042 H   0  0  0  0  0  0  0  0  0  0  0  0
   10.5942    3.8291    7.3871 H   0  0  0  0  0  0  0  0  0  0  0  0
    7.5674    4.8458   10.1468 H   0  0  0  0  0  0  0  0  0  0  0  0
  1  3  2  0
  1  4  1  0
  2  4  1  0
  1  5  1  0
  2  6  1  0
  5  6  1  0
  6  7  2  3
  5  8  1  0
  4 10  1  6
 10 11  2  0
 11 12  1  0
 12 13  2  0
 13 14  1  0
 10 15  1  0
 14 15  2  0
  9 16  2  0
  9 17  1  0
 14 18  1  0
 17 18  2  0
 18 19  1  0
 16 20  1  0
 19 20  2  0
  2 21  1  0
  7 22  1  0
  8 23  1  0
  8 24  1  0
  8 25  1  0
 11 26  1  0
 12 27  1  0
 13 28  1  0
 15 29  1  0
 16 30  1  0
 17 31  1  0
 19 32  1  0
 20 33  1  0
 34 35  2  0
 35 36  1  0
 36 37  2  0
 37 38  1  0
 37 39  1  0
 39 40  2  0
 40 41  1  0
 40 34  1  0
 35 42  1  0
 36 43  1  0
 39 44  1  0
  4 34  1  0
M  END
>  <attachment_point>  (197) 
21

>  <score>  (197) 
<NA>

$$$$
4djw
     RDKit          3D

 48 51  0  0  0  0  0  0  0  0999 V2000
   22.4950   11.8750   22.5810 C   0  0  0  0  0  0  0  0  0  0  0  0
   22.5380    9.4930   22.4640 N   0  0  0  0  0  0  0  0  0  0  0  0
   22.3600   13.0630   22.3480 O   0  0  0  0  0  0  0  0  0  0  0  0
   22.3390   10.6680   21.5610 C   0  0  2  0  0  0  0  0  0  0  0  0
   22.7860   11.3350   23.8120 N   0  0  0  0  0  0  0  0  0  0  0  0
   22.7800    9.9140   23.7010 C   0  0  0  0  0  0  0  0  0  0  0  0
   22.9970    9.1110   24.7490 N   0  0  0  0  0  0  0  0  0  0  0  0
   23.0220   12.1410   25.0180 C   0  0  0  0  0  0  0  0  0  0  0  0
   29.1260    9.8230   21.7090 N   0  0  0  0  0  0  0  0  0  0  0  0
   23.4880   10.6920   20.5300 C   0  0  0  0  0  0  0  0  0  0  0  0
   23.2110   10.7890   19.1730 C   0  0  0  0  0  0  0  0  0  0  0  0
   24.2350   10.8650   18.2430 C   0  0  0  0  0  0  0  0  0  0  0  0
   25.5500   10.8410   18.6560 C   0  0  0  0  0  0  0  0  0  0  0  0
   25.8710   10.7460   20.0070 C   0  0  0  0  0  0  0  0  0  0  0  0
   24.8260   10.6610   20.9430 C   0  0  0  0  0  0  0  0  0  0  0  0
   29.8540   10.9130   21.4510 C   0  0  0  0  0  0  0  0  0  0  0  0
   27.8830    9.7800   21.2080 C   0  0  0  0  0  0  0  0  0  0  0  0
   27.3000   10.8010   20.4650 C   0  0  0  0  0  0  0  0  0  0  0  0
   28.0930   11.9190   20.2200 C   0  0  0  0  0  0  0  0  0  0  0  0
   29.3850   11.9780   20.7130 C   0  0  0  0  0  0  0  0  0  0  0  0
    0.0000    0.0000    0.0000 H   0  0  0  0  0  0  0  0  0  0  0  0
    0.0000    0.0000    0.0000 H   0  0  0  0  0  0  0  0  0  0  0  0
    0.0000    0.0000    0.0000 H   0  0  0  0  0  0  0  0  0  0  0  0
    0.0000    0.0000    0.0000 H   0  0  0  0  0  0  0  0  0  0  0  0
    0.0000    0.0000    0.0000 H   0  0  0  0  0  0  0  0  0  0  0  0
    0.0000    0.0000    0.0000 H   0  0  0  0  0  0  0  0  0  0  0  0
    0.0000    0.0000    0.0000 H   0  0  0  0  0  0  0  0  0  0  0  0
    0.0000    0.0000    0.0000 H   0  0  0  0  0  0  0  0  0  0  0  0
    0.0000    0.0000    0.0000 H   0  0  0  0  0  0  0  0  0  0  0  0
    0.0000    0.0000    0.0000 H   0  0  0  0  0  0  0  0  0  0  0  0
    0.0000    0.0000    0.0000 H   0  0  0  0  0  0  0  0  0  0  0  0
    0.0000    0.0000    0.0000 H   0  0  0  0  0  0  0  0  0  0  0  0
    0.0000    0.0000    0.0000 H   0  0  0  0  0  0  0  0  0  0  0  0
   10.8801    5.1958   10.5011 C   0  0  0  0  0  0  0  0  0  0  0  0
    9.9112    6.0907   10.1130 C   0  0  0  0  0  0  0  0  0  0  0  0
    8.9716    5.6541    9.2111 C   0  0  0  0  0  0  0  0  0  0  0  0
    8.9930    4.3769    8.7131 C   0  0  0  0  0  0  0  0  0  0  0  0
    8.0144    3.9988    7.8046 O   0  0  0  0  0  0  0  0  0  0  0  0
    6.7863    3.4282    8.2457 C   0  0  0  0  0  0  0  0  0  0  0  0
    6.1076    4.3067    9.0750 F   0  0  0  0  0  0  0  0  0  0  0  0
    6.0399    3.2054    7.0914 F   0  0  0  0  0  0  0  0  0  0  0  0
    7.0254    2.2173    8.8435 F   0  0  0  0  0  0  0  0  0  0  0  0
    9.9756    3.5130    9.1243 C   0  0  0  0  0  0  0  0  0  0  0  0
   10.9392    3.9025   10.0258 C   0  0  0  0  0  0  0  0  0  0  0  0
    9.8990    7.1162   10.5169 H   0  0  0  0  0  0  0  0  0  0  0  0
    8.2092    6.3510    8.9029 H   0  0  0  0  0  0  0  0  0  0  0  0
   10.0209    2.4836    8.7445 H   0  0  0  0  0  0  0  0  0  0  0  0
   11.7325    3.2178   10.3629 H   0  0  0  0  0  0  0  0  0  0  0  0
  1  3  2  0
  1  4  1  0
  2  4  1  0
  1  5  1  0
  2  6  1  0
  5  6  1  0
  6  7  2  3
  5  8  1  0
  4 10  1  6
 10 11  2  0
 11 12  1  0
 12 13  2  0
 13 14  1  0
 10 15  1  0
 14 15  2  0
  9 16  2  0
  9 17  1  0
 14 18  1  0
 17 18  2  0
 18 19  1  0
 16 20  1  0
 19 20  2  0
  2 21  1  0
  7 22  1  0
  8 23  1  0
  8 24  1  0
  8 25  1  0
 11 26  1  0
 12 27  1  0
 13 28  1  0
 15 29  1  0
 16 30  1  0
 17 31  1  0
 19 32  1  0
 20 33  1  0
 34 35  2  0
 35 36  1  0
 36 37  2  0
 37 38  1  0
 38 39  1  0
 39 40  1  0
 39 41  1  0
 39 42  1  0
 37 43  1  0
 43 44  2  0
 44 34  1  0
 35 45  1  0
 36 46  1  0
 43 47  1  0
 44 48  1  0
  4 34  1  0
M  END
>  <attachment_point>  (198) 
21

>  <score>  (198) 
<NA>

$$$$
4djw
     RDKit          3D

 55 57  0  0  0  0  0  0  0  0999 V2000
   22.4950   11.8750   22.5810 C   0  0  0  0  0  0  0  0  0  0  0  0
   22.5380    9.4930   22.4640 N   0  0  0  0  0  0  0  0  0  0  0  0
   22.3600   13.0630   22.3480 O   0  0  0  0  0  0  0  0  0  0  0  0
   22.3390   10.6680   21.5610 C   0  0  2  0  0  0  0  0  0  0  0  0
   22.7860   11.3350   23.8120 N   0  0  0  0  0  0  0  0  0  0  0  0
   22.7800    9.9140   23.7010 C   0  0  0  0  0  0  0  0  0  0  0  0
   22.9970    9.1110   24.7490 N   0  0  0  0  0  0  0  0  0  0  0  0
   23.0220   12.1410   25.0180 C   0  0  0  0  0  0  0  0  0  0  0  0
   29.1260    9.8230   21.7090 N   0  0  0  0  0  0  0  0  0  0  0  0
   23.4880   10.6920   20.5300 C   0  0  0  0  0  0  0  0  0  0  0  0
   23.2110   10.7890   19.1730 C   0  0  0  0  0  0  0  0  0  0  0  0
   24.2350   10.8650   18.2430 C   0  0  0  0  0  0  0  0  0  0  0  0
   25.5500   10.8410   18.6560 C   0  0  0  0  0  0  0  0  0  0  0  0
   25.8710   10.7460   20.0070 C   0  0  0  0  0  0  0  0  0  0  0  0
   24.8260   10.6610   20.9430 C   0  0  0  0  0  0  0  0  0  0  0  0
   29.8540   10.9130   21.4510 C   0  0  0  0  0  0  0  0  0  0  0  0
   27.8830    9.7800   21.2080 C   0  0  0  0  0  0  0  0  0  0  0  0
   27.3000   10.8010   20.4650 C   0  0  0  0  0  0  0  0  0  0  0  0
   28.0930   11.9190   20.2200 C   0  0  0  0  0  0  0  0  0  0  0  0
   29.3850   11.9780   20.7130 C   0  0  0  0  0  0  0  0  0  0  0  0
    0.0000    0.0000    0.0000 H   0  0  0  0  0  0  0  0  0  0  0  0
    0.0000    0.0000    0.0000 H   0  0  0  0  0  0  0  0  0  0  0  0
    0.0000    0.0000    0.0000 H   0  0  0  0  0  0  0  0  0  0  0  0
    0.0000    0.0000    0.0000 H   0  0  0  0  0  0  0  0  0  0  0  0
    0.0000    0.0000    0.0000 H   0  0  0  0  0  0  0  0  0  0  0  0
    0.0000    0.0000    0.0000 H   0  0  0  0  0  0  0  0  0  0  0  0
    0.0000    0.0000    0.0000 H   0  0  0  0  0  0  0  0  0  0  0  0
    0.0000    0.0000    0.0000 H   0  0  0  0  0  0  0  0  0  0  0  0
    0.0000    0.0000    0.0000 H   0  0  0  0  0  0  0  0  0  0  0  0
    0.0000    0.0000    0.0000 H   0  0  0  0  0  0  0  0  0  0  0  0
    0.0000    0.0000    0.0000 H   0  0  0  0  0  0  0  0  0  0  0  0
    0.0000    0.0000    0.0000 H   0  0  0  0  0  0  0  0  0  0  0  0
    0.0000    0.0000    0.0000 H   0  0  0  0  0  0  0  0  0  0  0  0
   10.8619    5.1871   10.4836 C   0  0  0  0  0  0  0  0  0  0  0  0
   10.7524    3.7044   10.7918 C   0  0  0  0  0  0  0  0  0  0  0  0
   12.1050    3.0851   10.5882 C   0  0  0  0  0  0  0  0  0  0  0  0
   12.0150    1.6199   10.8912 C   0  0  0  0  0  0  0  0  0  0  0  0
   11.0517    0.8656   10.0381 C   0  0  0  0  0  0  0  0  0  0  0  0
   11.1066   -0.5950   10.4952 C   0  0  0  0  0  0  0  0  0  0  0  0
   10.1599   -1.4488    9.6875 C   0  0  0  0  0  0  0  0  0  0  0  0
   11.3269    5.3827    9.5009 H   0  0  0  0  0  0  0  0  0  0  0  0
    9.9271    5.7289   10.6631 H   0  0  0  0  0  0  0  0  0  0  0  0
   10.4022    3.6165   11.8347 H   0  0  0  0  0  0  0  0  0  0  0  0
   10.0374    3.2401   10.0594 H   0  0  0  0  0  0  0  0  0  0  0  0
   12.4551    3.3146    9.5842 H   0  0  0  0  0  0  0  0  0  0  0  0
   12.7835    3.5541   11.3507 H   0  0  0  0  0  0  0  0  0  0  0  0
   13.0457    1.1954   10.7119 H   0  0  0  0  0  0  0  0  0  0  0  0
   11.7489    1.4535   11.9541 H   0  0  0  0  0  0  0  0  0  0  0  0
   11.2408    0.9426    8.9654 H   0  0  0  0  0  0  0  0  0  0  0  0
   10.0046    1.2156   10.2289 H   0  0  0  0  0  0  0  0  0  0  0  0
   10.7691   -0.6528   11.5505 H   0  0  0  0  0  0  0  0  0  0  0  0
   12.1330   -0.9578   10.4328 H   0  0  0  0  0  0  0  0  0  0  0  0
   10.5914   -1.5328    8.6537 H   0  0  0  0  0  0  0  0  0  0  0  0
   10.1410   -2.4482   10.1693 H   0  0  0  0  0  0  0  0  0  0  0  0
    9.1540   -1.0082    9.6780 H   0  0  0  0  0  0  0  0  0  0  0  0
  1  3  2  0
  1  4  1  0
  2  4  1  0
  1  5  1  0
  2  6  1  0
  5  6  1  0
  6  7  2  3
  5  8  1  0
  4 10  1  0
 10 11  2  0
 11 12  1  0
 12 13  2  0
 13 14  1  0
 10 15  1  0
 14 15  2  0
  9 16  2  0
  9 17  1  0
 14 18  1  0
 17 18  2  0
 18 19  1  0
 16 20  1  0
 19 20  2  0
  2 21  1  0
  7 22  1  0
  8 23  1  0
  8 24  1  0
  8 25  1  0
 11 26  1  0
 12 27  1  0
 13 28  1  0
 15 29  1  0
 16 30  1  0
 17 31  1  0
 19 32  1  0
 20 33  1  0
 34 35  1  0
 35 36  1  0
 36 37  1  0
 37 38  1  0
 38 39  1  0
 39 40  1  0
 34 41  1  0
 34 42  1  0
 35 43  1  0
 35 44  1  0
 36 45  1  0
 36 46  1  0
 37 47  1  0
 37 48  1  0
 38 49  1  0
 38 50  1  0
 39 51  1  0
 39 52  1  0
 40 53  1  0
 40 54  1  0
 40 55  1  0
  4 34  1  6
M  END
>  <attachment_point>  (199) 
21

>  <score>  (199) 
<NA>

$$$$
4djw
     RDKit          3D

 45 48  0  0  0  0  0  0  0  0999 V2000
   22.4950   11.8750   22.5810 C   0  0  0  0  0  0  0  0  0  0  0  0
   22.5380    9.4930   22.4640 N   0  0  0  0  0  0  0  0  0  0  0  0
   22.3600   13.0630   22.3480 O   0  0  0  0  0  0  0  0  0  0  0  0
   22.3390   10.6680   21.5610 C   0  0  2  0  0  0  0  0  0  0  0  0
   22.7860   11.3350   23.8120 N   0  0  0  0  0  0  0  0  0  0  0  0
   22.7800    9.9140   23.7010 C   0  0  0  0  0  0  0  0  0  0  0  0
   22.9970    9.1110   24.7490 N   0  0  0  0  0  0  0  0  0  0  0  0
   23.0220   12.1410   25.0180 C   0  0  0  0  0  0  0  0  0  0  0  0
   29.1260    9.8230   21.7090 N   0  0  0  0  0  0  0  0  0  0  0  0
   23.4880   10.6920   20.5300 C   0  0  0  0  0  0  0  0  0  0  0  0
   23.2110   10.7890   19.1730 C   0  0  0  0  0  0  0  0  0  0  0  0
   24.2350   10.8650   18.2430 C   0  0  0  0  0  0  0  0  0  0  0  0
   25.5500   10.8410   18.6560 C   0  0  0  0  0  0  0  0  0  0  0  0
   25.8710   10.7460   20.0070 C   0  0  0  0  0  0  0  0  0  0  0  0
   24.8260   10.6610   20.9430 C   0  0  0  0  0  0  0  0  0  0  0  0
   29.8540   10.9130   21.4510 C   0  0  0  0  0  0  0  0  0  0  0  0
   27.8830    9.7800   21.2080 C   0  0  0  0  0  0  0  0  0  0  0  0
   27.3000   10.8010   20.4650 C   0  0  0  0  0  0  0  0  0  0  0  0
   28.0930   11.9190   20.2200 C   0  0  0  0  0  0  0  0  0  0  0  0
   29.3850   11.9780   20.7130 C   0  0  0  0  0  0  0  0  0  0  0  0
    0.0000    0.0000    0.0000 H   0  0  0  0  0  0  0  0  0  0  0  0
    0.0000    0.0000    0.0000 H   0  0  0  0  0  0  0  0  0  0  0  0
    0.0000    0.0000    0.0000 H   0  0  0  0  0  0  0  0  0  0  0  0
    0.0000    0.0000    0.0000 H   0  0  0  0  0  0  0  0  0  0  0  0
    0.0000    0.0000    0.0000 H   0  0  0  0  0  0  0  0  0  0  0  0
    0.0000    0.0000    0.0000 H   0  0  0  0  0  0  0  0  0  0  0  0
    0.0000    0.0000    0.0000 H   0  0  0  0  0  0  0  0  0  0  0  0
    0.0000    0.0000    0.0000 H   0  0  0  0  0  0  0  0  0  0  0  0
    0.0000    0.0000    0.0000 H   0  0  0  0  0  0  0  0  0  0  0  0
    0.0000    0.0000    0.0000 H   0  0  0  0  0  0  0  0  0  0  0  0
    0.0000    0.0000    0.0000 H   0  0  0  0  0  0  0  0  0  0  0  0
    0.0000    0.0000    0.0000 H   0  0  0  0  0  0  0  0  0  0  0  0
    0.0000    0.0000    0.0000 H   0  0  0  0  0  0  0  0  0  0  0  0
   10.8756    5.1936   10.4968 C   0  0  0  0  0  0  0  0  0  0  0  0
   10.1496    4.0450   10.7329 C   0  0  0  0  0  0  0  0  0  0  0  0
    9.2128    3.6126    9.8113 C   0  0  0  0  0  0  0  0  0  0  0  0
    8.9747    4.3088    8.6356 C   0  0  0  0  0  0  0  0  0  0  0  0
    8.0182    3.8824    7.6772 N   0  0  0  0  0  0  0  0  0  0  0  0
    9.7033    5.4237    8.4432 N   0  0  0  0  0  0  0  0  0  0  0  0
   10.6206    5.8684    9.3207 C   0  0  0  0  0  0  0  0  0  0  0  0
   10.3125    3.4668   11.6560 H   0  0  0  0  0  0  0  0  0  0  0  0
    8.6247    2.7057    9.9747 H   0  0  0  0  0  0  0  0  0  0  0  0
    8.2894    3.3111    6.8540 H   0  0  0  0  0  0  0  0  0  0  0  0
    7.0127    4.1311    7.7725 H   0  0  0  0  0  0  0  0  0  0  0  0
   11.1454    6.7749    9.0612 H   0  0  0  0  0  0  0  0  0  0  0  0
  1  3  2  0
  1  4  1  0
  2  4  1  0
  1  5  1  0
  2  6  1  0
  5  6  1  0
  6  7  2  3
  5  8  1  0
  4 10  1  6
 10 11  2  0
 11 12  1  0
 12 13  2  0
 13 14  1  0
 10 15  1  0
 14 15  2  0
  9 16  2  0
  9 17  1  0
 14 18  1  0
 17 18  2  0
 18 19  1  0
 16 20  1  0
 19 20  2  0
  2 21  1  0
  7 22  1  0
  8 23  1  0
  8 24  1  0
  8 25  1  0
 11 26  1  0
 12 27  1  0
 13 28  1  0
 15 29  1  0
 16 30  1  0
 17 31  1  0
 19 32  1  0
 20 33  1  0
 34 35  2  0
 35 36  1  0
 36 37  2  0
 37 38  1  0
 37 39  1  0
 39 40  2  0
 40 34  1  0
 35 41  1  0
 36 42  1  0
 38 43  1  0
 38 44  1  0
 40 45  1  0
  4 34  1  0
M  END
>  <attachment_point>  (200) 
21

>  <score>  (200) 
<NA>

$$$$
4djw
     RDKit          3D

 55 58  0  0  0  0  0  0  0  0999 V2000
   22.4950   11.8750   22.5810 C   0  0  0  0  0  0  0  0  0  0  0  0
   22.5380    9.4930   22.4640 N   0  0  0  0  0  0  0  0  0  0  0  0
   22.3600   13.0630   22.3480 O   0  0  0  0  0  0  0  0  0  0  0  0
   22.3390   10.6680   21.5610 C   0  0  2  0  0  0  0  0  0  0  0  0
   22.7860   11.3350   23.8120 N   0  0  0  0  0  0  0  0  0  0  0  0
   22.7800    9.9140   23.7010 C   0  0  0  0  0  0  0  0  0  0  0  0
   22.9970    9.1110   24.7490 N   0  0  0  0  0  0  0  0  0  0  0  0
   23.0220   12.1410   25.0180 C   0  0  0  0  0  0  0  0  0  0  0  0
   29.1260    9.8230   21.7090 N   0  0  0  0  0  0  0  0  0  0  0  0
   23.4880   10.6920   20.5300 C   0  0  0  0  0  0  0  0  0  0  0  0
   23.2110   10.7890   19.1730 C   0  0  0  0  0  0  0  0  0  0  0  0
   24.2350   10.8650   18.2430 C   0  0  0  0  0  0  0  0  0  0  0  0
   25.5500   10.8410   18.6560 C   0  0  0  0  0  0  0  0  0  0  0  0
   25.8710   10.7460   20.0070 C   0  0  0  0  0  0  0  0  0  0  0  0
   24.8260   10.6610   20.9430 C   0  0  0  0  0  0  0  0  0  0  0  0
   29.8540   10.9130   21.4510 C   0  0  0  0  0  0  0  0  0  0  0  0
   27.8830    9.7800   21.2080 C   0  0  0  0  0  0  0  0  0  0  0  0
   27.3000   10.8010   20.4650 C   0  0  0  0  0  0  0  0  0  0  0  0
   28.0930   11.9190   20.2200 C   0  0  0  0  0  0  0  0  0  0  0  0
   29.3850   11.9780   20.7130 C   0  0  0  0  0  0  0  0  0  0  0  0
    0.0000    0.0000    0.0000 H   0  0  0  0  0  0  0  0  0  0  0  0
    0.0000    0.0000    0.0000 H   0  0  0  0  0  0  0  0  0  0  0  0
    0.0000    0.0000    0.0000 H   0  0  0  0  0  0  0  0  0  0  0  0
    0.0000    0.0000    0.0000 H   0  0  0  0  0  0  0  0  0  0  0  0
    0.0000    0.0000    0.0000 H   0  0  0  0  0  0  0  0  0  0  0  0
    0.0000    0.0000    0.0000 H   0  0  0  0  0  0  0  0  0  0  0  0
    0.0000    0.0000    0.0000 H   0  0  0  0  0  0  0  0  0  0  0  0
    0.0000    0.0000    0.0000 H   0  0  0  0  0  0  0  0  0  0  0  0
    0.0000    0.0000    0.0000 H   0  0  0  0  0  0  0  0  0  0  0  0
    0.0000    0.0000    0.0000 H   0  0  0  0  0  0  0  0  0  0  0  0
    0.0000    0.0000    0.0000 H   0  0  0  0  0  0  0  0  0  0  0  0
    0.0000    0.0000    0.0000 H   0  0  0  0  0  0  0  0  0  0  0  0
    0.0000    0.0000    0.0000 H   0  0  0  0  0  0  0  0  0  0  0  0
   10.8816    5.1965   10.5026 C   0  0  0  0  0  0  0  0  0  0  0  0
    9.6387    6.0583   10.4495 C   0  0  0  0  0  0  0  0  0  0  0  0
    9.0175    6.1086   11.7272 N   0  0  0  0  0  0  0  0  0  0  0  0
    7.9382    7.1000   11.7673 C   0  0  0  0  0  0  0  0  0  0  0  0
    7.6903    7.3590   13.2473 C   0  0  0  0  0  0  0  0  0  0  0  0
    7.0973    6.0496   13.7889 C   0  0  0  0  0  0  0  0  0  0  0  0
    8.0960    4.9397   13.6565 C   0  0  0  0  0  0  0  0  0  0  0  0
    8.5134    4.8362   12.1960 C   0  0  0  0  0  0  0  0  0  0  0  0
   10.6610    4.1409   10.6948 H   0  0  0  0  0  0  0  0  0  0  0  0
   11.4545    5.3341    9.5142 H   0  0  0  0  0  0  0  0  0  0  0  0
    8.8946    5.5680    9.7452 H   0  0  0  0  0  0  0  0  0  0  0  0
    9.8065    7.0530    9.9921 H   0  0  0  0  0  0  0  0  0  0  0  0
    7.0400    6.7404   11.2584 H   0  0  0  0  0  0  0  0  0  0  0  0
    8.2928    8.0101   11.3042 H   0  0  0  0  0  0  0  0  0  0  0  0
    8.6746    7.4984   13.6998 H   0  0  0  0  0  0  0  0  0  0  0  0
    6.9901    8.1771   13.4361 H   0  0  0  0  0  0  0  0  0  0  0  0
    6.2158    5.8236   13.1885 H   0  0  0  0  0  0  0  0  0  0  0  0
    6.8566    6.2084   14.8658 H   0  0  0  0  0  0  0  0  0  0  0  0
    7.6164    3.9995   13.9656 H   0  0  0  0  0  0  0  0  0  0  0  0
    9.0167    5.1347   14.2334 H   0  0  0  0  0  0  0  0  0  0  0  0
    7.6605    4.4672   11.5855 H   0  0  0  0  0  0  0  0  0  0  0  0
    9.3153    4.0951   12.1163 H   0  0  0  0  0  0  0  0  0  0  0  0
  1  3  2  0
  1  4  1  0
  2  4  1  0
  1  5  1  0
  2  6  1  0
  5  6  1  0
  6  7  2  3
  5  8  1  0
  4 10  1  0
 10 11  2  0
 11 12  1  0
 12 13  2  0
 13 14  1  0
 10 15  1  0
 14 15  2  0
  9 16  2  0
  9 17  1  0
 14 18  1  0
 17 18  2  0
 18 19  1  0
 16 20  1  0
 19 20  2  0
  2 21  1  0
  7 22  1  0
  8 23  1  0
  8 24  1  0
  8 25  1  0
 11 26  1  0
 12 27  1  0
 13 28  1  0
 15 29  1  0
 16 30  1  0
 17 31  1  0
 19 32  1  0
 20 33  1  0
 34 35  1  0
 35 36  1  0
 36 37  1  0
 37 38  1  0
 38 39  1  0
 39 40  1  0
 40 41  1  0
 41 36  1  0
 34 42  1  0
 34 43  1  0
 35 44  1  0
 35 45  1  0
 37 46  1  0
 37 47  1  0
 38 48  1  0
 38 49  1  0
 39 50  1  0
 39 51  1  0
 40 52  1  0
 40 53  1  0
 41 54  1  0
 41 55  1  0
  4 34  1  6
M  END
>  <attachment_point>  (201) 
21

>  <score>  (201) 
<NA>

$$$$
4djw
     RDKit          3D

 41 44  0  0  0  0  0  0  0  0999 V2000
   22.4950   11.8750   22.5810 C   0  0  0  0  0  0  0  0  0  0  0  0
   22.5380    9.4930   22.4640 N   0  0  0  0  0  0  0  0  0  0  0  0
   22.3600   13.0630   22.3480 O   0  0  0  0  0  0  0  0  0  0  0  0
   22.3390   10.6680   21.5610 C   0  0  2  0  0  0  0  0  0  0  0  0
   22.7860   11.3350   23.8120 N   0  0  0  0  0  0  0  0  0  0  0  0
   22.7800    9.9140   23.7010 C   0  0  0  0  0  0  0  0  0  0  0  0
   22.9970    9.1110   24.7490 N   0  0  0  0  0  0  0  0  0  0  0  0
   23.0220   12.1410   25.0180 C   0  0  0  0  0  0  0  0  0  0  0  0
   29.1260    9.8230   21.7090 N   0  0  0  0  0  0  0  0  0  0  0  0
   23.4880   10.6920   20.5300 C   0  0  0  0  0  0  0  0  0  0  0  0
   23.2110   10.7890   19.1730 C   0  0  0  0  0  0  0  0  0  0  0  0
   24.2350   10.8650   18.2430 C   0  0  0  0  0  0  0  0  0  0  0  0
   25.5500   10.8410   18.6560 C   0  0  0  0  0  0  0  0  0  0  0  0
   25.8710   10.7460   20.0070 C   0  0  0  0  0  0  0  0  0  0  0  0
   24.8260   10.6610   20.9430 C   0  0  0  0  0  0  0  0  0  0  0  0
   29.8540   10.9130   21.4510 C   0  0  0  0  0  0  0  0  0  0  0  0
   27.8830    9.7800   21.2080 C   0  0  0  0  0  0  0  0  0  0  0  0
   27.3000   10.8010   20.4650 C   0  0  0  0  0  0  0  0  0  0  0  0
   28.0930   11.9190   20.2200 C   0  0  0  0  0  0  0  0  0  0  0  0
   29.3850   11.9780   20.7130 C   0  0  0  0  0  0  0  0  0  0  0  0
    0.0000    0.0000    0.0000 H   0  0  0  0  0  0  0  0  0  0  0  0
    0.0000    0.0000    0.0000 H   0  0  0  0  0  0  0  0  0  0  0  0
    0.0000    0.0000    0.0000 H   0  0  0  0  0  0  0  0  0  0  0  0
    0.0000    0.0000    0.0000 H   0  0  0  0  0  0  0  0  0  0  0  0
    0.0000    0.0000    0.0000 H   0  0  0  0  0  0  0  0  0  0  0  0
    0.0000    0.0000    0.0000 H   0  0  0  0  0  0  0  0  0  0  0  0
    0.0000    0.0000    0.0000 H   0  0  0  0  0  0  0  0  0  0  0  0
    0.0000    0.0000    0.0000 H   0  0  0  0  0  0  0  0  0  0  0  0
    0.0000    0.0000    0.0000 H   0  0  0  0  0  0  0  0  0  0  0  0
    0.0000    0.0000    0.0000 H   0  0  0  0  0  0  0  0  0  0  0  0
    0.0000    0.0000    0.0000 H   0  0  0  0  0  0  0  0  0  0  0  0
    0.0000    0.0000    0.0000 H   0  0  0  0  0  0  0  0  0  0  0  0
    0.0000    0.0000    0.0000 H   0  0  0  0  0  0  0  0  0  0  0  0
   10.8660    5.1891   10.4876 C   0  0  0  0  0  0  0  0  0  0  0  0
   10.6983    3.8738   10.1397 C   0  0  0  0  0  0  0  0  0  0  0  0
    9.7366    3.5933    9.2385 C   0  0  0  0  0  0  0  0  0  0  0  0
    9.0140    4.6533    8.7525 C   0  0  0  0  0  0  0  0  0  0  0  0
    7.7061    4.5843    7.5737 Cl  0  0  0  0  0  0  0  0  0  0  0  0
    9.6906    5.9893    9.5580 S   0  0  0  0  0  0  0  0  0  0  0  0
   11.3356    3.0610   10.5867 H   0  0  0  0  0  0  0  0  0  0  0  0
    9.5417    2.5410    8.9060 H   0  0  0  0  0  0  0  0  0  0  0  0
  1  3  2  0
  1  4  1  0
  2  4  1  0
  1  5  1  0
  2  6  1  0
  5  6  1  0
  6  7  2  3
  5  8  1  0
  4 10  1  6
 10 11  2  0
 11 12  1  0
 12 13  2  0
 13 14  1  0
 10 15  1  0
 14 15  2  0
  9 16  2  0
  9 17  1  0
 14 18  1  0
 17 18  2  0
 18 19  1  0
 16 20  1  0
 19 20  2  0
  2 21  1  0
  7 22  1  0
  8 23  1  0
  8 24  1  0
  8 25  1  0
 11 26  1  0
 12 27  1  0
 13 28  1  0
 15 29  1  0
 16 30  1  0
 17 31  1  0
 19 32  1  0
 20 33  1  0
 34 35  2  0
 35 36  1  0
 36 37  2  0
 37 38  1  0
 37 39  1  0
 39 34  1  0
 35 40  1  0
 36 41  1  0
  4 34  1  0
M  END
>  <attachment_point>  (202) 
21

>  <score>  (202) 
<NA>

$$$$
4djw
     RDKit          3D

 40 42  0  0  0  0  0  0  0  0999 V2000
   22.4950   11.8750   22.5810 C   0  0  0  0  0  0  0  0  0  0  0  0
   22.5380    9.4930   22.4640 N   0  0  0  0  0  0  0  0  0  0  0  0
   22.3600   13.0630   22.3480 O   0  0  0  0  0  0  0  0  0  0  0  0
   22.3390   10.6680   21.5610 C   0  0  2  0  0  0  0  0  0  0  0  0
   22.7860   11.3350   23.8120 N   0  0  0  0  0  0  0  0  0  0  0  0
   22.7800    9.9140   23.7010 C   0  0  0  0  0  0  0  0  0  0  0  0
   22.9970    9.1110   24.7490 N   0  0  0  0  0  0  0  0  0  0  0  0
   23.0220   12.1410   25.0180 C   0  0  0  0  0  0  0  0  0  0  0  0
   29.1260    9.8230   21.7090 N   0  0  0  0  0  0  0  0  0  0  0  0
   23.4880   10.6920   20.5300 C   0  0  0  0  0  0  0  0  0  0  0  0
   23.2110   10.7890   19.1730 C   0  0  0  0  0  0  0  0  0  0  0  0
   24.2350   10.8650   18.2430 C   0  0  0  0  0  0  0  0  0  0  0  0
   25.5500   10.8410   18.6560 C   0  0  0  0  0  0  0  0  0  0  0  0
   25.8710   10.7460   20.0070 C   0  0  0  0  0  0  0  0  0  0  0  0
   24.8260   10.6610   20.9430 C   0  0  0  0  0  0  0  0  0  0  0  0
   29.8540   10.9130   21.4510 C   0  0  0  0  0  0  0  0  0  0  0  0
   27.8830    9.7800   21.2080 C   0  0  0  0  0  0  0  0  0  0  0  0
   27.3000   10.8010   20.4650 C   0  0  0  0  0  0  0  0  0  0  0  0
   28.0930   11.9190   20.2200 C   0  0  0  0  0  0  0  0  0  0  0  0
   29.3850   11.9780   20.7130 C   0  0  0  0  0  0  0  0  0  0  0  0
    0.0000    0.0000    0.0000 H   0  0  0  0  0  0  0  0  0  0  0  0
    0.0000    0.0000    0.0000 H   0  0  0  0  0  0  0  0  0  0  0  0
    0.0000    0.0000    0.0000 H   0  0  0  0  0  0  0  0  0  0  0  0
    0.0000    0.0000    0.0000 H   0  0  0  0  0  0  0  0  0  0  0  0
    0.0000    0.0000    0.0000 H   0  0  0  0  0  0  0  0  0  0  0  0
    0.0000    0.0000    0.0000 H   0  0  0  0  0  0  0  0  0  0  0  0
    0.0000    0.0000    0.0000 H   0  0  0  0  0  0  0  0  0  0  0  0
    0.0000    0.0000    0.0000 H   0  0  0  0  0  0  0  0  0  0  0  0
    0.0000    0.0000    0.0000 H   0  0  0  0  0  0  0  0  0  0  0  0
    0.0000    0.0000    0.0000 H   0  0  0  0  0  0  0  0  0  0  0  0
    0.0000    0.0000    0.0000 H   0  0  0  0  0  0  0  0  0  0  0  0
    0.0000    0.0000    0.0000 H   0  0  0  0  0  0  0  0  0  0  0  0
    0.0000    0.0000    0.0000 H   0  0  0  0  0  0  0  0  0  0  0  0
   10.8428    5.1780   10.4652 C   0  0  0  0  0  0  0  0  0  0  0  0
   11.3616    4.8172    9.4084 O   0  0  0  0  0  0  0  0  0  0  0  0
    9.5063    5.1860   10.8294 N   0  0  0  0  0  0  0  0  0  0  0  0
    8.5584    4.7376    9.9255 N   0  0  0  0  0  0  0  0  0  0  0  0
    9.1331    5.5148   11.7668 H   0  0  0  0  0  0  0  0  0  0  0  0
    8.4590    5.2891    9.0757 H   0  0  0  0  0  0  0  0  0  0  0  0
    8.4482    3.7304    9.8621 H   0  0  0  0  0  0  0  0  0  0  0  0
  1  3  2  0
  1  4  1  0
  2  4  1  0
  1  5  1  0
  2  6  1  0
  5  6  1  0
  6  7  2  3
  5  8  1  0
  4 10  1  0
 10 11  2  0
 11 12  1  0
 12 13  2  0
 13 14  1  0
 10 15  1  0
 14 15  2  0
  9 16  2  0
  9 17  1  0
 14 18  1  0
 17 18  2  0
 18 19  1  0
 16 20  1  0
 19 20  2  0
  2 21  1  0
  7 22  1  0
  8 23  1  0
  8 24  1  0
  8 25  1  0
 11 26  1  0
 12 27  1  0
 13 28  1  0
 15 29  1  0
 16 30  1  0
 17 31  1  0
 19 32  1  0
 20 33  1  0
 34 35  2  0
 34 36  1  0
 36 37  1  0
 36 38  1  0
 37 39  1  0
 37 40  1  0
  4 34  1  6
M  END
>  <attachment_point>  (203) 
21

>  <score>  (203) 
<NA>

$$$$
4djw
     RDKit          3D

 50 53  0  0  0  0  0  0  0  0999 V2000
   22.4950   11.8750   22.5810 C   0  0  0  0  0  0  0  0  0  0  0  0
   22.5380    9.4930   22.4640 N   0  0  0  0  0  0  0  0  0  0  0  0
   22.3600   13.0630   22.3480 O   0  0  0  0  0  0  0  0  0  0  0  0
   22.3390   10.6680   21.5610 C   0  0  2  0  0  0  0  0  0  0  0  0
   22.7860   11.3350   23.8120 N   0  0  0  0  0  0  0  0  0  0  0  0
   22.7800    9.9140   23.7010 C   0  0  0  0  0  0  0  0  0  0  0  0
   22.9970    9.1110   24.7490 N   0  0  0  0  0  0  0  0  0  0  0  0
   23.0220   12.1410   25.0180 C   0  0  0  0  0  0  0  0  0  0  0  0
   29.1260    9.8230   21.7090 N   0  0  0  0  0  0  0  0  0  0  0  0
   23.4880   10.6920   20.5300 C   0  0  0  0  0  0  0  0  0  0  0  0
   23.2110   10.7890   19.1730 C   0  0  0  0  0  0  0  0  0  0  0  0
   24.2350   10.8650   18.2430 C   0  0  0  0  0  0  0  0  0  0  0  0
   25.5500   10.8410   18.6560 C   0  0  0  0  0  0  0  0  0  0  0  0
   25.8710   10.7460   20.0070 C   0  0  0  0  0  0  0  0  0  0  0  0
   24.8260   10.6610   20.9430 C   0  0  0  0  0  0  0  0  0  0  0  0
   29.8540   10.9130   21.4510 C   0  0  0  0  0  0  0  0  0  0  0  0
   27.8830    9.7800   21.2080 C   0  0  0  0  0  0  0  0  0  0  0  0
   27.3000   10.8010   20.4650 C   0  0  0  0  0  0  0  0  0  0  0  0
   28.0930   11.9190   20.2200 C   0  0  0  0  0  0  0  0  0  0  0  0
   29.3850   11.9780   20.7130 C   0  0  0  0  0  0  0  0  0  0  0  0
    0.0000    0.0000    0.0000 H   0  0  0  0  0  0  0  0  0  0  0  0
    0.0000    0.0000    0.0000 H   0  0  0  0  0  0  0  0  0  0  0  0
    0.0000    0.0000    0.0000 H   0  0  0  0  0  0  0  0  0  0  0  0
    0.0000    0.0000    0.0000 H   0  0  0  0  0  0  0  0  0  0  0  0
    0.0000    0.0000    0.0000 H   0  0  0  0  0  0  0  0  0  0  0  0
    0.0000    0.0000    0.0000 H   0  0  0  0  0  0  0  0  0  0  0  0
    0.0000    0.0000    0.0000 H   0  0  0  0  0  0  0  0  0  0  0  0
    0.0000    0.0000    0.0000 H   0  0  0  0  0  0  0  0  0  0  0  0
    0.0000    0.0000    0.0000 H   0  0  0  0  0  0  0  0  0  0  0  0
    0.0000    0.0000    0.0000 H   0  0  0  0  0  0  0  0  0  0  0  0
    0.0000    0.0000    0.0000 H   0  0  0  0  0  0  0  0  0  0  0  0
    0.0000    0.0000    0.0000 H   0  0  0  0  0  0  0  0  0  0  0  0
    0.0000    0.0000    0.0000 H   0  0  0  0  0  0  0  0  0  0  0  0
   10.8971    5.2039   10.5176 N   0  0  0  0  0  0  0  0  0  0  0  0
   11.4416    4.4213    9.4498 C   0  0  0  0  0  0  0  0  0  0  0  0
   12.4540    5.2053    8.6107 C   0  0  0  0  0  0  0  0  0  0  0  0
   11.6584    6.4065    8.0837 C   0  0  0  0  0  0  0  0  0  0  0  0
   12.3391    7.1099    7.1290 O   0  0  0  0  0  0  0  0  0  0  0  0
   11.3331    7.2174    9.3226 C   0  0  0  0  0  0  0  0  0  0  0  0
   10.2367    6.4174   10.0408 C   0  0  0  0  0  0  0  0  0  0  0  0
   10.5997    4.1984    8.7441 H   0  0  0  0  0  0  0  0  0  0  0  0
   11.8651    3.5094    9.8572 H   0  0  0  0  0  0  0  0  0  0  0  0
   13.2491    5.5642    9.3044 H   0  0  0  0  0  0  0  0  0  0  0  0
   12.8256    4.5675    7.8162 H   0  0  0  0  0  0  0  0  0  0  0  0
   10.7260    5.9558    7.6455 H   0  0  0  0  0  0  0  0  0  0  0  0
   11.7149    7.3606    6.3778 H   0  0  0  0  0  0  0  0  0  0  0  0
   11.0451    8.2402    9.1230 H   0  0  0  0  0  0  0  0  0  0  0  0
   12.2172    7.1817    9.9885 H   0  0  0  0  0  0  0  0  0  0  0  0
    9.4834    6.1568    9.2560 H   0  0  0  0  0  0  0  0  0  0  0  0
    9.8111    6.9572   10.8814 H   0  0  0  0  0  0  0  0  0  0  0  0
  1  3  2  0
  1  4  1  0
  2  4  1  0
  1  5  1  0
  2  6  1  0
  5  6  1  0
  6  7  2  3
  5  8  1  0
  4 10  1  0
 10 11  2  0
 11 12  1  0
 12 13  2  0
 13 14  1  0
 10 15  1  0
 14 15  2  0
  9 16  2  0
  9 17  1  0
 14 18  1  0
 17 18  2  0
 18 19  1  0
 16 20  1  0
 19 20  2  0
  2 21  1  0
  7 22  1  0
  8 23  1  0
  8 24  1  0
  8 25  1  0
 11 26  1  0
 12 27  1  0
 13 28  1  0
 15 29  1  0
 16 30  1  0
 17 31  1  0
 19 32  1  0
 20 33  1  0
 34 35  1  0
 35 36  1  0
 36 37  1  0
 37 38  1  0
 37 39  1  0
 39 40  1  0
 40 34  1  0
 35 41  1  0
 35 42  1  0
 36 43  1  0
 36 44  1  0
 37 45  1  0
 38 46  1  0
 39 47  1  0
 39 48  1  0
 40 49  1  0
 40 50  1  0
  4 34  1  6
M  END
>  <attachment_point>  (204) 
21

>  <score>  (204) 
<NA>

$$$$
4djw
     RDKit          3D

 49 52  0  0  0  0  0  0  0  0999 V2000
   22.4950   11.8750   22.5810 C   0  0  0  0  0  0  0  0  0  0  0  0
   22.5380    9.4930   22.4640 N   0  0  0  0  0  0  0  0  0  0  0  0
   22.3600   13.0630   22.3480 O   0  0  0  0  0  0  0  0  0  0  0  0
   22.3390   10.6680   21.5610 C   0  0  2  0  0  0  0  0  0  0  0  0
   22.7860   11.3350   23.8120 N   0  0  0  0  0  0  0  0  0  0  0  0
   22.7800    9.9140   23.7010 C   0  0  0  0  0  0  0  0  0  0  0  0
   22.9970    9.1110   24.7490 N   0  0  0  0  0  0  0  0  0  0  0  0
   23.0220   12.1410   25.0180 C   0  0  0  0  0  0  0  0  0  0  0  0
   29.1260    9.8230   21.7090 N   0  0  0  0  0  0  0  0  0  0  0  0
   23.4880   10.6920   20.5300 C   0  0  0  0  0  0  0  0  0  0  0  0
   23.2110   10.7890   19.1730 C   0  0  0  0  0  0  0  0  0  0  0  0
   24.2350   10.8650   18.2430 C   0  0  0  0  0  0  0  0  0  0  0  0
   25.5500   10.8410   18.6560 C   0  0  0  0  0  0  0  0  0  0  0  0
   25.8710   10.7460   20.0070 C   0  0  0  0  0  0  0  0  0  0  0  0
   24.8260   10.6610   20.9430 C   0  0  0  0  0  0  0  0  0  0  0  0
   29.8540   10.9130   21.4510 C   0  0  0  0  0  0  0  0  0  0  0  0
   27.8830    9.7800   21.2080 C   0  0  0  0  0  0  0  0  0  0  0  0
   27.3000   10.8010   20.4650 C   0  0  0  0  0  0  0  0  0  0  0  0
   28.0930   11.9190   20.2200 C   0  0  0  0  0  0  0  0  0  0  0  0
   29.3850   11.9780   20.7130 C   0  0  0  0  0  0  0  0  0  0  0  0
    0.0000    0.0000    0.0000 H   0  0  0  0  0  0  0  0  0  0  0  0
    0.0000    0.0000    0.0000 H   0  0  0  0  0  0  0  0  0  0  0  0
    0.0000    0.0000    0.0000 H   0  0  0  0  0  0  0  0  0  0  0  0
    0.0000    0.0000    0.0000 H   0  0  0  0  0  0  0  0  0  0  0  0
    0.0000    0.0000    0.0000 H   0  0  0  0  0  0  0  0  0  0  0  0
    0.0000    0.0000    0.0000 H   0  0  0  0  0  0  0  0  0  0  0  0
    0.0000    0.0000    0.0000 H   0  0  0  0  0  0  0  0  0  0  0  0
    0.0000    0.0000    0.0000 H   0  0  0  0  0  0  0  0  0  0  0  0
    0.0000    0.0000    0.0000 H   0  0  0  0  0  0  0  0  0  0  0  0
    0.0000    0.0000    0.0000 H   0  0  0  0  0  0  0  0  0  0  0  0
    0.0000    0.0000    0.0000 H   0  0  0  0  0  0  0  0  0  0  0  0
    0.0000    0.0000    0.0000 H   0  0  0  0  0  0  0  0  0  0  0  0
    0.0000    0.0000    0.0000 H   0  0  0  0  0  0  0  0  0  0  0  0
   10.8475    5.1802   10.4698 C   0  0  0  0  0  0  0  0  0  0  0  0
   10.5360    3.8637   10.4727 C   0  0  0  0  0  0  0  0  0  0  0  0
    9.5857    3.3750    9.5645 C   0  0  0  0  0  0  0  0  0  0  0  0
    9.0095    4.2798    8.7016 C   0  0  0  0  0  0  0  0  0  0  0  0
    9.3237    5.6223    8.6950 C   0  0  0  0  0  0  0  0  0  0  0  0
    8.6876    6.5417    7.7630 C   0  0  0  0  0  0  0  0  0  0  0  0
    7.6896    6.0109    6.8139 C   0  0  0  0  0  0  0  0  0  0  0  0
    8.9556    7.7674    7.7363 O   0  0  0  0  0  0  0  0  0  0  0  0
   10.2753    6.0747    9.6139 C   0  0  0  0  0  0  0  0  0  0  0  0
   10.9736    3.1303   11.1399 H   0  0  0  0  0  0  0  0  0  0  0  0
    9.3136    2.3233    9.5415 H   0  0  0  0  0  0  0  0  0  0  0  0
    8.2614    3.8924    7.9875 H   0  0  0  0  0  0  0  0  0  0  0  0
    6.7600    5.8129    7.4073 H   0  0  0  0  0  0  0  0  0  0  0  0
    7.4224    6.7433    6.0249 H   0  0  0  0  0  0  0  0  0  0  0  0
    8.0560    5.0856    6.3457 H   0  0  0  0  0  0  0  0  0  0  0  0
   10.5426    7.1160    9.6344 H   0  0  0  0  0  0  0  0  0  0  0  0
  1  3  2  0
  1  4  1  0
  2  4  1  0
  1  5  1  0
  2  6  1  0
  5  6  1  0
  6  7  2  3
  5  8  1  0
  4 10  1  6
 10 11  2  0
 11 12  1  0
 12 13  2  0
 13 14  1  0
 10 15  1  0
 14 15  2  0
  9 16  2  0
  9 17  1  0
 14 18  1  0
 17 18  2  0
 18 19  1  0
 16 20  1  0
 19 20  2  0
  2 21  1  0
  7 22  1  0
  8 23  1  0
  8 24  1  0
  8 25  1  0
 11 26  1  0
 12 27  1  0
 13 28  1  0
 15 29  1  0
 16 30  1  0
 17 31  1  0
 19 32  1  0
 20 33  1  0
 34 35  2  0
 35 36  1  0
 36 37  2  0
 37 38  1  0
 38 39  1  0
 39 40  1  0
 39 41  2  0
 38 42  2  0
 42 34  1  0
 35 43  1  0
 36 44  1  0
 37 45  1  0
 40 46  1  0
 40 47  1  0
 40 48  1  0
 42 49  1  0
  4 34  1  0
M  END
>  <attachment_point>  (205) 
21

>  <score>  (205) 
<NA>

$$$$
4djw
     RDKit          3D

 46 49  0  0  0  0  0  0  0  0999 V2000
   22.4950   11.8750   22.5810 C   0  0  0  0  0  0  0  0  0  0  0  0
   22.5380    9.4930   22.4640 N   0  0  0  0  0  0  0  0  0  0  0  0
   22.3600   13.0630   22.3480 O   0  0  0  0  0  0  0  0  0  0  0  0
   22.3390   10.6680   21.5610 C   0  0  2  0  0  0  0  0  0  0  0  0
   22.7860   11.3350   23.8120 N   0  0  0  0  0  0  0  0  0  0  0  0
   22.7800    9.9140   23.7010 C   0  0  0  0  0  0  0  0  0  0  0  0
   22.9970    9.1110   24.7490 N   0  0  0  0  0  0  0  0  0  0  0  0
   23.0220   12.1410   25.0180 C   0  0  0  0  0  0  0  0  0  0  0  0
   29.1260    9.8230   21.7090 N   0  0  0  0  0  0  0  0  0  0  0  0
   23.4880   10.6920   20.5300 C   0  0  0  0  0  0  0  0  0  0  0  0
   23.2110   10.7890   19.1730 C   0  0  0  0  0  0  0  0  0  0  0  0
   24.2350   10.8650   18.2430 C   0  0  0  0  0  0  0  0  0  0  0  0
   25.5500   10.8410   18.6560 C   0  0  0  0  0  0  0  0  0  0  0  0
   25.8710   10.7460   20.0070 C   0  0  0  0  0  0  0  0  0  0  0  0
   24.8260   10.6610   20.9430 C   0  0  0  0  0  0  0  0  0  0  0  0
   29.8540   10.9130   21.4510 C   0  0  0  0  0  0  0  0  0  0  0  0
   27.8830    9.7800   21.2080 C   0  0  0  0  0  0  0  0  0  0  0  0
   27.3000   10.8010   20.4650 C   0  0  0  0  0  0  0  0  0  0  0  0
   28.0930   11.9190   20.2200 C   0  0  0  0  0  0  0  0  0  0  0  0
   29.3850   11.9780   20.7130 C   0  0  0  0  0  0  0  0  0  0  0  0
    0.0000    0.0000    0.0000 H   0  0  0  0  0  0  0  0  0  0  0  0
    0.0000    0.0000    0.0000 H   0  0  0  0  0  0  0  0  0  0  0  0
    0.0000    0.0000    0.0000 H   0  0  0  0  0  0  0  0  0  0  0  0
    0.0000    0.0000    0.0000 H   0  0  0  0  0  0  0  0  0  0  0  0
    0.0000    0.0000    0.0000 H   0  0  0  0  0  0  0  0  0  0  0  0
    0.0000    0.0000    0.0000 H   0  0  0  0  0  0  0  0  0  0  0  0
    0.0000    0.0000    0.0000 H   0  0  0  0  0  0  0  0  0  0  0  0
    0.0000    0.0000    0.0000 H   0  0  0  0  0  0  0  0  0  0  0  0
    0.0000    0.0000    0.0000 H   0  0  0  0  0  0  0  0  0  0  0  0
    0.0000    0.0000    0.0000 H   0  0  0  0  0  0  0  0  0  0  0  0
    0.0000    0.0000    0.0000 H   0  0  0  0  0  0  0  0  0  0  0  0
    0.0000    0.0000    0.0000 H   0  0  0  0  0  0  0  0  0  0  0  0
    0.0000    0.0000    0.0000 H   0  0  0  0  0  0  0  0  0  0  0  0
   10.8757    5.1937   10.4969 C   0  0  0  0  0  0  0  0  0  0  0  0
    9.5881    5.0461   10.9690 C   0  0  0  0  0  0  0  0  0  0  0  0
    8.6459    4.5980   10.0664 C   0  0  0  0  0  0  0  0  0  0  0  0
    9.0073    4.3151    8.7438 C   0  0  0  0  0  0  0  0  0  0  0  0
   10.3133    4.4791    8.3178 C   0  0  0  0  0  0  0  0  0  0  0  0
   10.7464    4.1917    6.9224 C   0  0  0  0  0  0  0  0  0  0  0  0
   11.2132    4.9174    9.2178 N   0  0  0  0  0  0  0  0  0  0  0  0
    9.3145    5.2666   11.9929 H   0  0  0  0  0  0  0  0  0  0  0  0
    7.6242    4.4735   10.4133 H   0  0  0  0  0  0  0  0  0  0  0  0
    8.2722    3.9710    8.0601 H   0  0  0  0  0  0  0  0  0  0  0  0
   10.8785    5.1120    6.3247 H   0  0  0  0  0  0  0  0  0  0  0  0
    9.9762    3.5814    6.3952 H   0  0  0  0  0  0  0  0  0  0  0  0
   11.6907    3.6093    6.8978 H   0  0  0  0  0  0  0  0  0  0  0  0
  1  3  2  0
  1  4  1  0
  2  4  1  0
  1  5  1  0
  2  6  1  0
  5  6  1  0
  6  7  2  3
  5  8  1  0
  4 10  1  6
 10 11  2  0
 11 12  1  0
 12 13  2  0
 13 14  1  0
 10 15  1  0
 14 15  2  0
  9 16  2  0
  9 17  1  0
 14 18  1  0
 17 18  2  0
 18 19  1  0
 16 20  1  0
 19 20  2  0
  2 21  1  0
  7 22  1  0
  8 23  1  0
  8 24  1  0
  8 25  1  0
 11 26  1  0
 12 27  1  0
 13 28  1  0
 15 29  1  0
 16 30  1  0
 17 31  1  0
 19 32  1  0
 20 33  1  0
 34 35  2  0
 35 36  1  0
 36 37  2  0
 37 38  1  0
 38 39  1  0
 38 40  2  0
 40 34  1  0
 35 41  1  0
 36 42  1  0
 37 43  1  0
 39 44  1  0
 39 45  1  0
 39 46  1  0
  4 34  1  0
M  END
>  <attachment_point>  (206) 
21

>  <score>  (206) 
<NA>

$$$$
4djw
     RDKit          3D

 43 46  0  0  0  0  0  0  0  0999 V2000
   22.4950   11.8750   22.5810 C   0  0  0  0  0  0  0  0  0  0  0  0
   22.5380    9.4930   22.4640 N   0  0  0  0  0  0  0  0  0  0  0  0
   22.3600   13.0630   22.3480 O   0  0  0  0  0  0  0  0  0  0  0  0
   22.3390   10.6680   21.5610 C   0  0  2  0  0  0  0  0  0  0  0  0
   22.7860   11.3350   23.8120 N   0  0  0  0  0  0  0  0  0  0  0  0
   22.7800    9.9140   23.7010 C   0  0  0  0  0  0  0  0  0  0  0  0
   22.9970    9.1110   24.7490 N   0  0  0  0  0  0  0  0  0  0  0  0
   23.0220   12.1410   25.0180 C   0  0  0  0  0  0  0  0  0  0  0  0
   29.1260    9.8230   21.7090 N   0  0  0  0  0  0  0  0  0  0  0  0
   23.4880   10.6920   20.5300 C   0  0  0  0  0  0  0  0  0  0  0  0
   23.2110   10.7890   19.1730 C   0  0  0  0  0  0  0  0  0  0  0  0
   24.2350   10.8650   18.2430 C   0  0  0  0  0  0  0  0  0  0  0  0
   25.5500   10.8410   18.6560 C   0  0  0  0  0  0  0  0  0  0  0  0
   25.8710   10.7460   20.0070 C   0  0  0  0  0  0  0  0  0  0  0  0
   24.8260   10.6610   20.9430 C   0  0  0  0  0  0  0  0  0  0  0  0
   29.8540   10.9130   21.4510 C   0  0  0  0  0  0  0  0  0  0  0  0
   27.8830    9.7800   21.2080 C   0  0  0  0  0  0  0  0  0  0  0  0
   27.3000   10.8010   20.4650 C   0  0  0  0  0  0  0  0  0  0  0  0
   28.0930   11.9190   20.2200 C   0  0  0  0  0  0  0  0  0  0  0  0
   29.3850   11.9780   20.7130 C   0  0  0  0  0  0  0  0  0  0  0  0
    0.0000    0.0000    0.0000 H   0  0  0  0  0  0  0  0  0  0  0  0
    0.0000    0.0000    0.0000 H   0  0  0  0  0  0  0  0  0  0  0  0
    0.0000    0.0000    0.0000 H   0  0  0  0  0  0  0  0  0  0  0  0
    0.0000    0.0000    0.0000 H   0  0  0  0  0  0  0  0  0  0  0  0
    0.0000    0.0000    0.0000 H   0  0  0  0  0  0  0  0  0  0  0  0
    0.0000    0.0000    0.0000 H   0  0  0  0  0  0  0  0  0  0  0  0
    0.0000    0.0000    0.0000 H   0  0  0  0  0  0  0  0  0  0  0  0
    0.0000    0.0000    0.0000 H   0  0  0  0  0  0  0  0  0  0  0  0
    0.0000    0.0000    0.0000 H   0  0  0  0  0  0  0  0  0  0  0  0
    0.0000    0.0000    0.0000 H   0  0  0  0  0  0  0  0  0  0  0  0
    0.0000    0.0000    0.0000 H   0  0  0  0  0  0  0  0  0  0  0  0
    0.0000    0.0000    0.0000 H   0  0  0  0  0  0  0  0  0  0  0  0
    0.0000    0.0000    0.0000 H   0  0  0  0  0  0  0  0  0  0  0  0
   10.8429    5.1780   10.4653 C   0  0  0  0  0  0  0  0  0  0  0  0
   11.2085    4.8988    9.1820 C   0  0  0  0  0  0  0  0  0  0  0  0
    9.7231    4.4007    8.5097 S   0  0  0  0  0  0  0  0  0  0  0  0
    8.7348    4.5808    9.9067 C   0  0  0  0  0  0  0  0  0  0  0  0
    7.2559    4.3113   10.0547 C   0  0  0  0  0  0  0  0  0  0  0  0
    9.5989    5.0090   10.7969 N   0  0  0  0  0  0  0  0  0  0  0  0
   12.2064    4.9960    8.7774 H   0  0  0  0  0  0  0  0  0  0  0  0
    6.9768    3.3812    9.5241 H   0  0  0  0  0  0  0  0  0  0  0  0
    7.0579    4.1568   11.1323 H   0  0  0  0  0  0  0  0  0  0  0  0
    6.6504    5.1359    9.6742 H   0  0  0  0  0  0  0  0  0  0  0  0
  1  3  2  0
  1  4  1  0
  2  4  1  0
  1  5  1  0
  2  6  1  0
  5  6  1  0
  6  7  2  3
  5  8  1  0
  4 10  1  6
 10 11  2  0
 11 12  1  0
 12 13  2  0
 13 14  1  0
 10 15  1  0
 14 15  2  0
  9 16  2  0
  9 17  1  0
 14 18  1  0
 17 18  2  0
 18 19  1  0
 16 20  1  0
 19 20  2  0
  2 21  1  0
  7 22  1  0
  8 23  1  0
  8 24  1  0
  8 25  1  0
 11 26  1  0
 12 27  1  0
 13 28  1  0
 15 29  1  0
 16 30  1  0
 17 31  1  0
 19 32  1  0
 20 33  1  0
 34 35  2  0
 35 36  1  0
 36 37  1  0
 37 38  1  0
 37 39  2  0
 39 34  1  0
 35 40  1  0
 38 41  1  0
 38 42  1  0
 38 43  1  0
  4 34  1  0
M  END
>  <attachment_point>  (207) 
21

>  <score>  (207) 
<NA>

$$$$
4djw
     RDKit          3D

 45 48  0  0  0  0  0  0  0  0999 V2000
   22.4950   11.8750   22.5810 C   0  0  0  0  0  0  0  0  0  0  0  0
   22.5380    9.4930   22.4640 N   0  0  0  0  0  0  0  0  0  0  0  0
   22.3600   13.0630   22.3480 O   0  0  0  0  0  0  0  0  0  0  0  0
   22.3390   10.6680   21.5610 C   0  0  2  0  0  0  0  0  0  0  0  0
   22.7860   11.3350   23.8120 N   0  0  0  0  0  0  0  0  0  0  0  0
   22.7800    9.9140   23.7010 C   0  0  0  0  0  0  0  0  0  0  0  0
   22.9970    9.1110   24.7490 N   0  0  0  0  0  0  0  0  0  0  0  0
   23.0220   12.1410   25.0180 C   0  0  0  0  0  0  0  0  0  0  0  0
   29.1260    9.8230   21.7090 N   0  0  0  0  0  0  0  0  0  0  0  0
   23.4880   10.6920   20.5300 C   0  0  0  0  0  0  0  0  0  0  0  0
   23.2110   10.7890   19.1730 C   0  0  0  0  0  0  0  0  0  0  0  0
   24.2350   10.8650   18.2430 C   0  0  0  0  0  0  0  0  0  0  0  0
   25.5500   10.8410   18.6560 C   0  0  0  0  0  0  0  0  0  0  0  0
   25.8710   10.7460   20.0070 C   0  0  0  0  0  0  0  0  0  0  0  0
   24.8260   10.6610   20.9430 C   0  0  0  0  0  0  0  0  0  0  0  0
   29.8540   10.9130   21.4510 C   0  0  0  0  0  0  0  0  0  0  0  0
   27.8830    9.7800   21.2080 C   0  0  0  0  0  0  0  0  0  0  0  0
   27.3000   10.8010   20.4650 C   0  0  0  0  0  0  0  0  0  0  0  0
   28.0930   11.9190   20.2200 C   0  0  0  0  0  0  0  0  0  0  0  0
   29.3850   11.9780   20.7130 C   0  0  0  0  0  0  0  0  0  0  0  0
    0.0000    0.0000    0.0000 H   0  0  0  0  0  0  0  0  0  0  0  0
    0.0000    0.0000    0.0000 H   0  0  0  0  0  0  0  0  0  0  0  0
    0.0000    0.0000    0.0000 H   0  0  0  0  0  0  0  0  0  0  0  0
    0.0000    0.0000    0.0000 H   0  0  0  0  0  0  0  0  0  0  0  0
    0.0000    0.0000    0.0000 H   0  0  0  0  0  0  0  0  0  0  0  0
    0.0000    0.0000    0.0000 H   0  0  0  0  0  0  0  0  0  0  0  0
    0.0000    0.0000    0.0000 H   0  0  0  0  0  0  0  0  0  0  0  0
    0.0000    0.0000    0.0000 H   0  0  0  0  0  0  0  0  0  0  0  0
    0.0000    0.0000    0.0000 H   0  0  0  0  0  0  0  0  0  0  0  0
    0.0000    0.0000    0.0000 H   0  0  0  0  0  0  0  0  0  0  0  0
    0.0000    0.0000    0.0000 H   0  0  0  0  0  0  0  0  0  0  0  0
    0.0000    0.0000    0.0000 H   0  0  0  0  0  0  0  0  0  0  0  0
    0.0000    0.0000    0.0000 H   0  0  0  0  0  0  0  0  0  0  0  0
   10.8040    5.1595   10.4277 C   0  0  0  0  0  0  0  0  0  0  0  0
    9.8075    4.8254   10.9716 O   0  0  0  0  0  0  0  0  0  0  0  0
   11.1851    5.1841    9.1236 N   0  0  0  0  0  0  0  0  0  0  0  0
   10.3200    4.7473    8.0363 C   0  0  0  0  0  0  0  0  0  0  0  0
   10.3152    5.4906    6.7430 C   0  0  0  0  0  0  0  0  0  0  0  0
   10.8794    4.1001    6.8449 C   0  0  0  0  0  0  0  0  0  0  0  0
   12.1550    5.5342    8.8591 H   0  0  0  0  0  0  0  0  0  0  0  0
    9.3195    4.3908    8.3617 H   0  0  0  0  0  0  0  0  0  0  0  0
   11.0134    6.3144    6.5431 H   0  0  0  0  0  0  0  0  0  0  0  0
    9.3378    5.6431    6.2012 H   0  0  0  0  0  0  0  0  0  0  0  0
   10.2845    3.3440    6.2872 H   0  0  0  0  0  0  0  0  0  0  0  0
   11.9663    3.9946    6.6601 H   0  0  0  0  0  0  0  0  0  0  0  0
  1  3  2  0
  1  4  1  0
  2  4  1  0
  1  5  1  0
  2  6  1  0
  5  6  1  0
  6  7  2  3
  5  8  1  0
  4 10  1  0
 10 11  2  0
 11 12  1  0
 12 13  2  0
 13 14  1  0
 10 15  1  0
 14 15  2  0
  9 16  2  0
  9 17  1  0
 14 18  1  0
 17 18  2  0
 18 19  1  0
 16 20  1  0
 19 20  2  0
  2 21  1  0
  7 22  1  0
  8 23  1  0
  8 24  1  0
  8 25  1  0
 11 26  1  0
 12 27  1  0
 13 28  1  0
 15 29  1  0
 16 30  1  0
 17 31  1  0
 19 32  1  0
 20 33  1  0
 34 35  2  0
 34 36  1  0
 36 37  1  0
 37 38  1  0
 38 39  1  0
 39 37  1  0
 36 40  1  0
 37 41  1  0
 38 42  1  0
 38 43  1  0
 39 44  1  0
 39 45  1  0
  4 34  1  6
M  END
>  <attachment_point>  (208) 
21

>  <score>  (208) 
<NA>

$$$$
4djw
     RDKit          3D

 42 44  0  0  0  0  0  0  0  0999 V2000
   22.4950   11.8750   22.5810 C   0  0  0  0  0  0  0  0  0  0  0  0
   22.5380    9.4930   22.4640 N   0  0  0  0  0  0  0  0  0  0  0  0
   22.3600   13.0630   22.3480 O   0  0  0  0  0  0  0  0  0  0  0  0
   22.3390   10.6680   21.5610 C   0  0  2  0  0  0  0  0  0  0  0  0
   22.7860   11.3350   23.8120 N   0  0  0  0  0  0  0  0  0  0  0  0
   22.7800    9.9140   23.7010 C   0  0  0  0  0  0  0  0  0  0  0  0
   22.9970    9.1110   24.7490 N   0  0  0  0  0  0  0  0  0  0  0  0
   23.0220   12.1410   25.0180 C   0  0  0  0  0  0  0  0  0  0  0  0
   29.1260    9.8230   21.7090 N   0  0  0  0  0  0  0  0  0  0  0  0
   23.4880   10.6920   20.5300 C   0  0  0  0  0  0  0  0  0  0  0  0
   23.2110   10.7890   19.1730 C   0  0  0  0  0  0  0  0  0  0  0  0
   24.2350   10.8650   18.2430 C   0  0  0  0  0  0  0  0  0  0  0  0
   25.5500   10.8410   18.6560 C   0  0  0  0  0  0  0  0  0  0  0  0
   25.8710   10.7460   20.0070 C   0  0  0  0  0  0  0  0  0  0  0  0
   24.8260   10.6610   20.9430 C   0  0  0  0  0  0  0  0  0  0  0  0
   29.8540   10.9130   21.4510 C   0  0  0  0  0  0  0  0  0  0  0  0
   27.8830    9.7800   21.2080 C   0  0  0  0  0  0  0  0  0  0  0  0
   27.3000   10.8010   20.4650 C   0  0  0  0  0  0  0  0  0  0  0  0
   28.0930   11.9190   20.2200 C   0  0  0  0  0  0  0  0  0  0  0  0
   29.3850   11.9780   20.7130 C   0  0  0  0  0  0  0  0  0  0  0  0
    0.0000    0.0000    0.0000 H   0  0  0  0  0  0  0  0  0  0  0  0
    0.0000    0.0000    0.0000 H   0  0  0  0  0  0  0  0  0  0  0  0
    0.0000    0.0000    0.0000 H   0  0  0  0  0  0  0  0  0  0  0  0
    0.0000    0.0000    0.0000 H   0  0  0  0  0  0  0  0  0  0  0  0
    0.0000    0.0000    0.0000 H   0  0  0  0  0  0  0  0  0  0  0  0
    0.0000    0.0000    0.0000 H   0  0  0  0  0  0  0  0  0  0  0  0
    0.0000    0.0000    0.0000 H   0  0  0  0  0  0  0  0  0  0  0  0
    0.0000    0.0000    0.0000 H   0  0  0  0  0  0  0  0  0  0  0  0
    0.0000    0.0000    0.0000 H   0  0  0  0  0  0  0  0  0  0  0  0
    0.0000    0.0000    0.0000 H   0  0  0  0  0  0  0  0  0  0  0  0
    0.0000    0.0000    0.0000 H   0  0  0  0  0  0  0  0  0  0  0  0
    0.0000    0.0000    0.0000 H   0  0  0  0  0  0  0  0  0  0  0  0
    0.0000    0.0000    0.0000 H   0  0  0  0  0  0  0  0  0  0  0  0
   10.8190    5.1666   10.4422 O   0  0  0  0  0  0  0  0  0  0  0  0
   11.8379    4.4915    9.7238 C   0  0  0  0  0  0  0  0  0  0  0  0
   11.3040    3.8806    8.4972 C   0  0  0  0  0  0  0  0  0  0  0  0
   11.3335    2.5924    8.2189 C   0  0  0  0  0  0  0  0  0  0  0  0
   12.6632    5.1821    9.4525 H   0  0  0  0  0  0  0  0  0  0  0  0
   12.2347    3.7420   10.4347 H   0  0  0  0  0  0  0  0  0  0  0  0
   10.8498    4.5631    7.7682 H   0  0  0  0  0  0  0  0  0  0  0  0
   11.7750    1.9196    8.9253 H   0  0  0  0  0  0  0  0  0  0  0  0
   10.9265    2.2000    7.3028 H   0  0  0  0  0  0  0  0  0  0  0  0
  1  3  2  0
  1  4  1  0
  2  4  1  0
  1  5  1  0
  2  6  1  0
  5  6  1  0
  6  7  2  3
  5  8  1  0
  4 10  1  0
 10 11  2  0
 11 12  1  0
 12 13  2  0
 13 14  1  0
 10 15  1  0
 14 15  2  0
  9 16  2  0
  9 17  1  0
 14 18  1  0
 17 18  2  0
 18 19  1  0
 16 20  1  0
 19 20  2  0
  2 21  1  0
  7 22  1  0
  8 23  1  0
  8 24  1  0
  8 25  1  0
 11 26  1  0
 12 27  1  0
 13 28  1  0
 15 29  1  0
 16 30  1  0
 17 31  1  0
 19 32  1  0
 20 33  1  0
 34 35  1  0
 35 36  1  0
 36 37  2  3
 35 38  1  0
 35 39  1  0
 36 40  1  0
 37 41  1  0
 37 42  1  0
  4 34  1  6
M  END
>  <attachment_point>  (209) 
21

>  <score>  (209) 
<NA>

$$$$
4djw
     RDKit          3D

 45 48  0  0  0  0  0  0  0  0999 V2000
   22.4950   11.8750   22.5810 C   0  0  0  0  0  0  0  0  0  0  0  0
   22.5380    9.4930   22.4640 N   0  0  0  0  0  0  0  0  0  0  0  0
   22.3600   13.0630   22.3480 O   0  0  0  0  0  0  0  0  0  0  0  0
   22.3390   10.6680   21.5610 C   0  0  2  0  0  0  0  0  0  0  0  0
   22.7860   11.3350   23.8120 N   0  0  0  0  0  0  0  0  0  0  0  0
   22.7800    9.9140   23.7010 C   0  0  0  0  0  0  0  0  0  0  0  0
   22.9970    9.1110   24.7490 N   0  0  0  0  0  0  0  0  0  0  0  0
   23.0220   12.1410   25.0180 C   0  0  0  0  0  0  0  0  0  0  0  0
   29.1260    9.8230   21.7090 N   0  0  0  0  0  0  0  0  0  0  0  0
   23.4880   10.6920   20.5300 C   0  0  0  0  0  0  0  0  0  0  0  0
   23.2110   10.7890   19.1730 C   0  0  0  0  0  0  0  0  0  0  0  0
   24.2350   10.8650   18.2430 C   0  0  0  0  0  0  0  0  0  0  0  0
   25.5500   10.8410   18.6560 C   0  0  0  0  0  0  0  0  0  0  0  0
   25.8710   10.7460   20.0070 C   0  0  0  0  0  0  0  0  0  0  0  0
   24.8260   10.6610   20.9430 C   0  0  0  0  0  0  0  0  0  0  0  0
   29.8540   10.9130   21.4510 C   0  0  0  0  0  0  0  0  0  0  0  0
   27.8830    9.7800   21.2080 C   0  0  0  0  0  0  0  0  0  0  0  0
   27.3000   10.8010   20.4650 C   0  0  0  0  0  0  0  0  0  0  0  0
   28.0930   11.9190   20.2200 C   0  0  0  0  0  0  0  0  0  0  0  0
   29.3850   11.9780   20.7130 C   0  0  0  0  0  0  0  0  0  0  0  0
    0.0000    0.0000    0.0000 H   0  0  0  0  0  0  0  0  0  0  0  0
    0.0000    0.0000    0.0000 H   0  0  0  0  0  0  0  0  0  0  0  0
    0.0000    0.0000    0.0000 H   0  0  0  0  0  0  0  0  0  0  0  0
    0.0000    0.0000    0.0000 H   0  0  0  0  0  0  0  0  0  0  0  0
    0.0000    0.0000    0.0000 H   0  0  0  0  0  0  0  0  0  0  0  0
    0.0000    0.0000    0.0000 H   0  0  0  0  0  0  0  0  0  0  0  0
    0.0000    0.0000    0.0000 H   0  0  0  0  0  0  0  0  0  0  0  0
    0.0000    0.0000    0.0000 H   0  0  0  0  0  0  0  0  0  0  0  0
    0.0000    0.0000    0.0000 H   0  0  0  0  0  0  0  0  0  0  0  0
    0.0000    0.0000    0.0000 H   0  0  0  0  0  0  0  0  0  0  0  0
    0.0000    0.0000    0.0000 H   0  0  0  0  0  0  0  0  0  0  0  0
    0.0000    0.0000    0.0000 H   0  0  0  0  0  0  0  0  0  0  0  0
    0.0000    0.0000    0.0000 H   0  0  0  0  0  0  0  0  0  0  0  0
   10.9076    5.2089   10.5277 N   0  0  0  0  0  0  0  0  0  0  0  0
    9.5641    5.6962   10.4907 C   0  0  0  0  0  0  0  0  0  0  0  0
    9.1782    6.6534   11.3922 C   0  0  0  0  0  0  0  0  0  0  0  0
    7.9005    7.1833   11.4313 C   0  0  0  0  0  0  0  0  0  0  0  0
    6.9923    6.6982   10.4975 C   0  0  0  0  0  0  0  0  0  0  0  0
    7.3953    5.7342    9.5959 C   0  0  0  0  0  0  0  0  0  0  0  0
    8.6686    5.2554    9.6119 N   0  0  0  0  0  0  0  0  0  0  0  0
   11.2179    4.4712    9.8385 H   0  0  0  0  0  0  0  0  0  0  0  0
    9.9019    7.0190   12.1131 H   0  0  0  0  0  0  0  0  0  0  0  0
    7.5720    7.9271   12.1194 H   0  0  0  0  0  0  0  0  0  0  0  0
    5.9621    7.0679   10.4648 H   0  0  0  0  0  0  0  0  0  0  0  0
    6.6600    5.3744    8.8765 H   0  0  0  0  0  0  0  0  0  0  0  0
  1  3  2  0
  1  4  1  0
  2  4  1  0
  1  5  1  0
  2  6  1  0
  5  6  1  0
  6  7  2  3
  5  8  1  0
  4 10  1  0
 10 11  2  0
 11 12  1  0
 12 13  2  0
 13 14  1  0
 10 15  1  0
 14 15  2  0
  9 16  2  0
  9 17  1  0
 14 18  1  0
 17 18  2  0
 18 19  1  0
 16 20  1  0
 19 20  2  0
  2 21  1  0
  7 22  1  0
  8 23  1  0
  8 24  1  0
  8 25  1  0
 11 26  1  0
 12 27  1  0
 13 28  1  0
 15 29  1  0
 16 30  1  0
 17 31  1  0
 19 32  1  0
 20 33  1  0
 34 35  1  0
 35 36  2  0
 36 37  1  0
 37 38  2  0
 38 39  1  0
 39 40  2  0
 40 35  1  0
 34 41  1  0
 36 42  1  0
 37 43  1  0
 38 44  1  0
 39 45  1  0
  4 34  1  6
M  END
>  <attachment_point>  (210) 
21

>  <score>  (210) 
<NA>

$$$$
4djw
     RDKit          3D

 49 52  0  0  0  0  0  0  0  0999 V2000
   22.4950   11.8750   22.5810 C   0  0  0  0  0  0  0  0  0  0  0  0
   22.5380    9.4930   22.4640 N   0  0  0  0  0  0  0  0  0  0  0  0
   22.3600   13.0630   22.3480 O   0  0  0  0  0  0  0  0  0  0  0  0
   22.3390   10.6680   21.5610 C   0  0  2  0  0  0  0  0  0  0  0  0
   22.7860   11.3350   23.8120 N   0  0  0  0  0  0  0  0  0  0  0  0
   22.7800    9.9140   23.7010 C   0  0  0  0  0  0  0  0  0  0  0  0
   22.9970    9.1110   24.7490 N   0  0  0  0  0  0  0  0  0  0  0  0
   23.0220   12.1410   25.0180 C   0  0  0  0  0  0  0  0  0  0  0  0
   29.1260    9.8230   21.7090 N   0  0  0  0  0  0  0  0  0  0  0  0
   23.4880   10.6920   20.5300 C   0  0  0  0  0  0  0  0  0  0  0  0
   23.2110   10.7890   19.1730 C   0  0  0  0  0  0  0  0  0  0  0  0
   24.2350   10.8650   18.2430 C   0  0  0  0  0  0  0  0  0  0  0  0
   25.5500   10.8410   18.6560 C   0  0  0  0  0  0  0  0  0  0  0  0
   25.8710   10.7460   20.0070 C   0  0  0  0  0  0  0  0  0  0  0  0
   24.8260   10.6610   20.9430 C   0  0  0  0  0  0  0  0  0  0  0  0
   29.8540   10.9130   21.4510 C   0  0  0  0  0  0  0  0  0  0  0  0
   27.8830    9.7800   21.2080 C   0  0  0  0  0  0  0  0  0  0  0  0
   27.3000   10.8010   20.4650 C   0  0  0  0  0  0  0  0  0  0  0  0
   28.0930   11.9190   20.2200 C   0  0  0  0  0  0  0  0  0  0  0  0
   29.3850   11.9780   20.7130 C   0  0  0  0  0  0  0  0  0  0  0  0
    0.0000    0.0000    0.0000 H   0  0  0  0  0  0  0  0  0  0  0  0
    0.0000    0.0000    0.0000 H   0  0  0  0  0  0  0  0  0  0  0  0
    0.0000    0.0000    0.0000 H   0  0  0  0  0  0  0  0  0  0  0  0
    0.0000    0.0000    0.0000 H   0  0  0  0  0  0  0  0  0  0  0  0
    0.0000    0.0000    0.0000 H   0  0  0  0  0  0  0  0  0  0  0  0
    0.0000    0.0000    0.0000 H   0  0  0  0  0  0  0  0  0  0  0  0
    0.0000    0.0000    0.0000 H   0  0  0  0  0  0  0  0  0  0  0  0
    0.0000    0.0000    0.0000 H   0  0  0  0  0  0  0  0  0  0  0  0
    0.0000    0.0000    0.0000 H   0  0  0  0  0  0  0  0  0  0  0  0
    0.0000    0.0000    0.0000 H   0  0  0  0  0  0  0  0  0  0  0  0
    0.0000    0.0000    0.0000 H   0  0  0  0  0  0  0  0  0  0  0  0
    0.0000    0.0000    0.0000 H   0  0  0  0  0  0  0  0  0  0  0  0
    0.0000    0.0000    0.0000 H   0  0  0  0  0  0  0  0  0  0  0  0
   10.8381    5.1757   10.4607 N   0  0  0  0  0  0  0  0  0  0  0  0
   11.6137    5.4580    9.2682 C   0  0  0  0  0  0  0  0  0  0  0  0
   11.9606    6.9261    9.1439 C   0  0  0  0  0  0  0  0  0  0  0  0
   13.2808    6.9035    8.4042 C   0  0  0  0  0  0  0  0  0  0  0  0
   14.0101    5.7717    9.1056 C   0  0  0  0  0  0  0  0  0  0  0  0
   12.9395    4.7378    9.3977 C   0  0  0  0  0  0  0  0  0  0  0  0
   10.0982    5.8620   10.6394 H   0  0  0  0  0  0  0  0  0  0  0  0
   11.0309    5.1154    8.4093 H   0  0  0  0  0  0  0  0  0  0  0  0
   11.1796    7.4672    8.5798 H   0  0  0  0  0  0  0  0  0  0  0  0
   12.1522    7.3368   10.1484 H   0  0  0  0  0  0  0  0  0  0  0  0
   13.8807    7.8112    8.5558 H   0  0  0  0  0  0  0  0  0  0  0  0
   13.1469    6.6858    7.3199 H   0  0  0  0  0  0  0  0  0  0  0  0
   14.8357    5.3589    8.5040 H   0  0  0  0  0  0  0  0  0  0  0  0
   14.3712    6.1974   10.0739 H   0  0  0  0  0  0  0  0  0  0  0  0
   13.1041    4.3386   10.4129 H   0  0  0  0  0  0  0  0  0  0  0  0
   12.9874    3.8885    8.7021 H   0  0  0  0  0  0  0  0  0  0  0  0
  1  3  2  0
  1  4  1  0
  2  4  1  0
  1  5  1  0
  2  6  1  0
  5  6  1  0
  6  7  2  3
  5  8  1  0
  4 10  1  0
 10 11  2  0
 11 12  1  0
 12 13  2  0
 13 14  1  0
 10 15  1  0
 14 15  2  0
  9 16  2  0
  9 17  1  0
 14 18  1  0
 17 18  2  0
 18 19  1  0
 16 20  1  0
 19 20  2  0
  2 21  1  0
  7 22  1  0
  8 23  1  0
  8 24  1  0
  8 25  1  0
 11 26  1  0
 12 27  1  0
 13 28  1  0
 15 29  1  0
 16 30  1  0
 17 31  1  0
 19 32  1  0
 20 33  1  0
 34 35  1  0
 35 36  1  0
 36 37  1  0
 37 38  1  0
 38 39  1  0
 39 35  1  0
 34 40  1  0
 35 41  1  0
 36 42  1  0
 36 43  1  0
 37 44  1  0
 37 45  1  0
 38 46  1  0
 38 47  1  0
 39 48  1  0
 39 49  1  0
  4 34  1  6
M  END
>  <attachment_point>  (211) 
21

>  <score>  (211) 
<NA>

$$$$
4djw
     RDKit          3D

 40 42  0  0  0  0  0  0  0  0999 V2000
   22.4950   11.8750   22.5810 C   0  0  0  0  0  0  0  0  0  0  0  0
   22.5380    9.4930   22.4640 N   0  0  0  0  0  0  0  0  0  0  0  0
   22.3600   13.0630   22.3480 O   0  0  0  0  0  0  0  0  0  0  0  0
   22.3390   10.6680   21.5610 C   0  0  2  0  0  0  0  0  0  0  0  0
   22.7860   11.3350   23.8120 N   0  0  0  0  0  0  0  0  0  0  0  0
   22.7800    9.9140   23.7010 C   0  0  0  0  0  0  0  0  0  0  0  0
   22.9970    9.1110   24.7490 N   0  0  0  0  0  0  0  0  0  0  0  0
   23.0220   12.1410   25.0180 C   0  0  0  0  0  0  0  0  0  0  0  0
   29.1260    9.8230   21.7090 N   0  0  0  0  0  0  0  0  0  0  0  0
   23.4880   10.6920   20.5300 C   0  0  0  0  0  0  0  0  0  0  0  0
   23.2110   10.7890   19.1730 C   0  0  0  0  0  0  0  0  0  0  0  0
   24.2350   10.8650   18.2430 C   0  0  0  0  0  0  0  0  0  0  0  0
   25.5500   10.8410   18.6560 C   0  0  0  0  0  0  0  0  0  0  0  0
   25.8710   10.7460   20.0070 C   0  0  0  0  0  0  0  0  0  0  0  0
   24.8260   10.6610   20.9430 C   0  0  0  0  0  0  0  0  0  0  0  0
   29.8540   10.9130   21.4510 C   0  0  0  0  0  0  0  0  0  0  0  0
   27.8830    9.7800   21.2080 C   0  0  0  0  0  0  0  0  0  0  0  0
   27.3000   10.8010   20.4650 C   0  0  0  0  0  0  0  0  0  0  0  0
   28.0930   11.9190   20.2200 C   0  0  0  0  0  0  0  0  0  0  0  0
   29.3850   11.9780   20.7130 C   0  0  0  0  0  0  0  0  0  0  0  0
    0.0000    0.0000    0.0000 H   0  0  0  0  0  0  0  0  0  0  0  0
    0.0000    0.0000    0.0000 H   0  0  0  0  0  0  0  0  0  0  0  0
    0.0000    0.0000    0.0000 H   0  0  0  0  0  0  0  0  0  0  0  0
    0.0000    0.0000    0.0000 H   0  0  0  0  0  0  0  0  0  0  0  0
    0.0000    0.0000    0.0000 H   0  0  0  0  0  0  0  0  0  0  0  0
    0.0000    0.0000    0.0000 H   0  0  0  0  0  0  0  0  0  0  0  0
    0.0000    0.0000    0.0000 H   0  0  0  0  0  0  0  0  0  0  0  0
    0.0000    0.0000    0.0000 H   0  0  0  0  0  0  0  0  0  0  0  0
    0.0000    0.0000    0.0000 H   0  0  0  0  0  0  0  0  0  0  0  0
    0.0000    0.0000    0.0000 H   0  0  0  0  0  0  0  0  0  0  0  0
    0.0000    0.0000    0.0000 H   0  0  0  0  0  0  0  0  0  0  0  0
    0.0000    0.0000    0.0000 H   0  0  0  0  0  0  0  0  0  0  0  0
    0.0000    0.0000    0.0000 H   0  0  0  0  0  0  0  0  0  0  0  0
   10.8104    5.1625   10.4340 N   0  0  0  0  0  0  0  0  0  0  0  0
    9.5598    5.4376   10.8474 C   0  0  0  0  0  0  0  0  0  0  0  0
    8.4010    5.0670   10.0686 N   0  0  0  0  0  0  0  0  0  0  0  0
    9.3292    6.0369   11.9432 O   0  0  0  0  0  0  0  0  0  0  0  0
   11.2515    4.7515    9.7046 H   0  0  0  0  0  0  0  0  0  0  0  0
    7.9922    5.7563    9.4158 H   0  0  0  0  0  0  0  0  0  0  0  0
    8.0099    4.1090   10.1899 H   0  0  0  0  0  0  0  0  0  0  0  0
  1  3  2  0
  1  4  1  0
  2  4  1  0
  1  5  1  0
  2  6  1  0
  5  6  1  0
  6  7  2  3
  5  8  1  0
  4 10  1  0
 10 11  2  0
 11 12  1  0
 12 13  2  0
 13 14  1  0
 10 15  1  0
 14 15  2  0
  9 16  2  0
  9 17  1  0
 14 18  1  0
 17 18  2  0
 18 19  1  0
 16 20  1  0
 19 20  2  0
  2 21  1  0
  7 22  1  0
  8 23  1  0
  8 24  1  0
  8 25  1  0
 11 26  1  0
 12 27  1  0
 13 28  1  0
 15 29  1  0
 16 30  1  0
 17 31  1  0
 19 32  1  0
 20 33  1  0
 34 35  1  0
 35 36  1  0
 35 37  2  0
 34 38  1  0
 36 39  1  0
 36 40  1  0
  4 34  1  6
M  END
>  <attachment_point>  (212) 
21

>  <score>  (212) 
<NA>

$$$$
4djw
     RDKit          3D

 41 43  0  0  0  0  0  0  0  0999 V2000
   22.4950   11.8750   22.5810 C   0  0  0  0  0  0  0  0  0  0  0  0
   22.5380    9.4930   22.4640 N   0  0  0  0  0  0  0  0  0  0  0  0
   22.3600   13.0630   22.3480 O   0  0  0  0  0  0  0  0  0  0  0  0
   22.3390   10.6680   21.5610 C   0  0  2  0  0  0  0  0  0  0  0  0
   22.7860   11.3350   23.8120 N   0  0  0  0  0  0  0  0  0  0  0  0
   22.7800    9.9140   23.7010 C   0  0  0  0  0  0  0  0  0  0  0  0
   22.9970    9.1110   24.7490 N   0  0  0  0  0  0  0  0  0  0  0  0
   23.0220   12.1410   25.0180 C   0  0  0  0  0  0  0  0  0  0  0  0
   29.1260    9.8230   21.7090 N   0  0  0  0  0  0  0  0  0  0  0  0
   23.4880   10.6920   20.5300 C   0  0  0  0  0  0  0  0  0  0  0  0
   23.2110   10.7890   19.1730 C   0  0  0  0  0  0  0  0  0  0  0  0
   24.2350   10.8650   18.2430 C   0  0  0  0  0  0  0  0  0  0  0  0
   25.5500   10.8410   18.6560 C   0  0  0  0  0  0  0  0  0  0  0  0
   25.8710   10.7460   20.0070 C   0  0  0  0  0  0  0  0  0  0  0  0
   24.8260   10.6610   20.9430 C   0  0  0  0  0  0  0  0  0  0  0  0
   29.8540   10.9130   21.4510 C   0  0  0  0  0  0  0  0  0  0  0  0
   27.8830    9.7800   21.2080 C   0  0  0  0  0  0  0  0  0  0  0  0
   27.3000   10.8010   20.4650 C   0  0  0  0  0  0  0  0  0  0  0  0
   28.0930   11.9190   20.2200 C   0  0  0  0  0  0  0  0  0  0  0  0
   29.3850   11.9780   20.7130 C   0  0  0  0  0  0  0  0  0  0  0  0
    0.0000    0.0000    0.0000 H   0  0  0  0  0  0  0  0  0  0  0  0
    0.0000    0.0000    0.0000 H   0  0  0  0  0  0  0  0  0  0  0  0
    0.0000    0.0000    0.0000 H   0  0  0  0  0  0  0  0  0  0  0  0
    0.0000    0.0000    0.0000 H   0  0  0  0  0  0  0  0  0  0  0  0
    0.0000    0.0000    0.0000 H   0  0  0  0  0  0  0  0  0  0  0  0
    0.0000    0.0000    0.0000 H   0  0  0  0  0  0  0  0  0  0  0  0
    0.0000    0.0000    0.0000 H   0  0  0  0  0  0  0  0  0  0  0  0
    0.0000    0.0000    0.0000 H   0  0  0  0  0  0  0  0  0  0  0  0
    0.0000    0.0000    0.0000 H   0  0  0  0  0  0  0  0  0  0  0  0
    0.0000    0.0000    0.0000 H   0  0  0  0  0  0  0  0  0  0  0  0
    0.0000    0.0000    0.0000 H   0  0  0  0  0  0  0  0  0  0  0  0
    0.0000    0.0000    0.0000 H   0  0  0  0  0  0  0  0  0  0  0  0
    0.0000    0.0000    0.0000 H   0  0  0  0  0  0  0  0  0  0  0  0
   10.8819    5.1967   10.5029 C   0  0  0  0  0  0  0  0  0  0  0  0
   11.0715    5.8035    9.1699 C   0  0  0  0  0  0  0  0  0  0  0  0
   11.3094    5.0603    8.1076 C   0  0  0  0  0  0  0  0  0  0  0  0
    9.8353    5.4091   10.8186 H   0  0  0  0  0  0  0  0  0  0  0  0
   10.9937    4.0857   10.4655 H   0  0  0  0  0  0  0  0  0  0  0  0
   11.0033    6.8951    9.1187 H   0  0  0  0  0  0  0  0  0  0  0  0
   11.4390    5.5699    7.1586 H   0  0  0  0  0  0  0  0  0  0  0  0
   11.3637    3.9916    8.2295 H   0  0  0  0  0  0  0  0  0  0  0  0
  1  3  2  0
  1  4  1  0
  2  4  1  0
  1  5  1  0
  2  6  1  0
  5  6  1  0
  6  7  2  3
  5  8  1  0
  4 10  1  0
 10 11  2  0
 11 12  1  0
 12 13  2  0
 13 14  1  0
 10 15  1  0
 14 15  2  0
  9 16  2  0
  9 17  1  0
 14 18  1  0
 17 18  2  0
 18 19  1  0
 16 20  1  0
 19 20  2  0
  2 21  1  0
  7 22  1  0
  8 23  1  0
  8 24  1  0
  8 25  1  0
 11 26  1  0
 12 27  1  0
 13 28  1  0
 15 29  1  0
 16 30  1  0
 17 31  1  0
 19 32  1  0
 20 33  1  0
 34 35  1  0
 35 36  2  3
 34 37  1  0
 34 38  1  0
 35 39  1  0
 36 40  1  0
 36 41  1  0
  4 34  1  6
M  END
>  <attachment_point>  (213) 
21

>  <score>  (213) 
<NA>

$$$$
4djw
     RDKit          3D

 50 53  0  0  0  0  0  0  0  0999 V2000
   22.4950   11.8750   22.5810 C   0  0  0  0  0  0  0  0  0  0  0  0
   22.5380    9.4930   22.4640 N   0  0  0  0  0  0  0  0  0  0  0  0
   22.3600   13.0630   22.3480 O   0  0  0  0  0  0  0  0  0  0  0  0
   22.3390   10.6680   21.5610 C   0  0  2  0  0  0  0  0  0  0  0  0
   22.7860   11.3350   23.8120 N   0  0  0  0  0  0  0  0  0  0  0  0
   22.7800    9.9140   23.7010 C   0  0  0  0  0  0  0  0  0  0  0  0
   22.9970    9.1110   24.7490 N   0  0  0  0  0  0  0  0  0  0  0  0
   23.0220   12.1410   25.0180 C   0  0  0  0  0  0  0  0  0  0  0  0
   29.1260    9.8230   21.7090 N   0  0  0  0  0  0  0  0  0  0  0  0
   23.4880   10.6920   20.5300 C   0  0  0  0  0  0  0  0  0  0  0  0
   23.2110   10.7890   19.1730 C   0  0  0  0  0  0  0  0  0  0  0  0
   24.2350   10.8650   18.2430 C   0  0  0  0  0  0  0  0  0  0  0  0
   25.5500   10.8410   18.6560 C   0  0  0  0  0  0  0  0  0  0  0  0
   25.8710   10.7460   20.0070 C   0  0  0  0  0  0  0  0  0  0  0  0
   24.8260   10.6610   20.9430 C   0  0  0  0  0  0  0  0  0  0  0  0
   29.8540   10.9130   21.4510 C   0  0  0  0  0  0  0  0  0  0  0  0
   27.8830    9.7800   21.2080 C   0  0  0  0  0  0  0  0  0  0  0  0
   27.3000   10.8010   20.4650 C   0  0  0  0  0  0  0  0  0  0  0  0
   28.0930   11.9190   20.2200 C   0  0  0  0  0  0  0  0  0  0  0  0
   29.3850   11.9780   20.7130 C   0  0  0  0  0  0  0  0  0  0  0  0
    0.0000    0.0000    0.0000 H   0  0  0  0  0  0  0  0  0  0  0  0
    0.0000    0.0000    0.0000 H   0  0  0  0  0  0  0  0  0  0  0  0
    0.0000    0.0000    0.0000 H   0  0  0  0  0  0  0  0  0  0  0  0
    0.0000    0.0000    0.0000 H   0  0  0  0  0  0  0  0  0  0  0  0
    0.0000    0.0000    0.0000 H   0  0  0  0  0  0  0  0  0  0  0  0
    0.0000    0.0000    0.0000 H   0  0  0  0  0  0  0  0  0  0  0  0
    0.0000    0.0000    0.0000 H   0  0  0  0  0  0  0  0  0  0  0  0
    0.0000    0.0000    0.0000 H   0  0  0  0  0  0  0  0  0  0  0  0
    0.0000    0.0000    0.0000 H   0  0  0  0  0  0  0  0  0  0  0  0
    0.0000    0.0000    0.0000 H   0  0  0  0  0  0  0  0  0  0  0  0
    0.0000    0.0000    0.0000 H   0  0  0  0  0  0  0  0  0  0  0  0
    0.0000    0.0000    0.0000 H   0  0  0  0  0  0  0  0  0  0  0  0
    0.0000    0.0000    0.0000 H   0  0  0  0  0  0  0  0  0  0  0  0
   10.8141    5.1643   10.4375 C   0  0  0  0  0  0  0  0  0  0  0  0
   10.7132    3.8387   10.2812 C   0  0  0  0  0  0  0  0  0  0  0  0
    9.7696    3.3132    9.3670 C   0  0  0  0  0  0  0  0  0  0  0  0
    9.0017    4.2254    8.6846 C   0  0  0  0  0  0  0  0  0  0  0  0
    7.8007    3.6727    7.5264 S   0  0  0  0  0  6  0  0  0  0  0  0
    6.2488    3.4330    8.3657 C   0  0  0  0  0  0  0  0  0  0  0  0
    7.5960    4.7276    6.4831 O   0  0  0  0  0  0  0  0  0  0  0  0
    8.1853    2.3475    6.9269 O   0  0  0  0  0  0  0  0  0  0  0  0
    9.1505    5.5765    8.8871 C   0  0  0  0  0  0  0  0  0  0  0  0
   10.0951    6.0903    9.8017 C   0  0  0  0  0  0  0  0  0  0  0  0
   11.3176    3.1211   10.8185 H   0  0  0  0  0  0  0  0  0  0  0  0
    9.6926    2.2444    9.2454 H   0  0  0  0  0  0  0  0  0  0  0  0
    5.8775    4.3717    8.8333 H   0  0  0  0  0  0  0  0  0  0  0  0
    5.5153    3.0092    7.6431 H   0  0  0  0  0  0  0  0  0  0  0  0
    6.3792    2.6832    9.1734 H   0  0  0  0  0  0  0  0  0  0  0  0
    8.5475    6.3225    8.3526 H   0  0  0  0  0  0  0  0  0  0  0  0
   10.1904    7.1748    9.9415 H   0  0  0  0  0  0  0  0  0  0  0  0
  1  3  2  0
  1  4  1  0
  2  4  1  0
  1  5  1  0
  2  6  1  0
  5  6  1  0
  6  7  2  3
  5  8  1  0
  4 10  1  6
 10 11  2  0
 11 12  1  0
 12 13  2  0
 13 14  1  0
 10 15  1  0
 14 15  2  0
  9 16  2  0
  9 17  1  0
 14 18  1  0
 17 18  2  0
 18 19  1  0
 16 20  1  0
 19 20  2  0
  2 21  1  0
  7 22  1  0
  8 23  1  0
  8 24  1  0
  8 25  1  0
 11 26  1  0
 12 27  1  0
 13 28  1  0
 15 29  1  0
 16 30  1  0
 17 31  1  0
 19 32  1  0
 20 33  1  0
 34 35  2  0
 35 36  1  0
 36 37  2  0
 37 38  1  0
 38 39  1  0
 38 40  2  0
 38 41  2  0
 37 42  1  0
 42 43  2  0
 43 34  1  0
 35 44  1  0
 36 45  1  0
 39 46  1  0
 39 47  1  0
 39 48  1  0
 42 49  1  0
 43 50  1  0
  4 34  1  0
M  END
>  <attachment_point>  (214) 
21

>  <score>  (214) 
<NA>

$$$$
4djw
     RDKit          3D

 38 40  0  0  0  0  0  0  0  0999 V2000
   22.4950   11.8750   22.5810 C   0  0  0  0  0  0  0  0  0  0  0  0
   22.5380    9.4930   22.4640 N   0  0  0  0  0  0  0  0  0  0  0  0
   22.3600   13.0630   22.3480 O   0  0  0  0  0  0  0  0  0  0  0  0
   22.3390   10.6680   21.5610 C   0  0  2  0  0  0  0  0  0  0  0  0
   22.7860   11.3350   23.8120 N   0  0  0  0  0  0  0  0  0  0  0  0
   22.7800    9.9140   23.7010 C   0  0  0  0  0  0  0  0  0  0  0  0
   22.9970    9.1110   24.7490 N   0  0  0  0  0  0  0  0  0  0  0  0
   23.0220   12.1410   25.0180 C   0  0  0  0  0  0  0  0  0  0  0  0
   29.1260    9.8230   21.7090 N   0  0  0  0  0  0  0  0  0  0  0  0
   23.4880   10.6920   20.5300 C   0  0  0  0  0  0  0  0  0  0  0  0
   23.2110   10.7890   19.1730 C   0  0  0  0  0  0  0  0  0  0  0  0
   24.2350   10.8650   18.2430 C   0  0  0  0  0  0  0  0  0  0  0  0
   25.5500   10.8410   18.6560 C   0  0  0  0  0  0  0  0  0  0  0  0
   25.8710   10.7460   20.0070 C   0  0  0  0  0  0  0  0  0  0  0  0
   24.8260   10.6610   20.9430 C   0  0  0  0  0  0  0  0  0  0  0  0
   29.8540   10.9130   21.4510 C   0  0  0  0  0  0  0  0  0  0  0  0
   27.8830    9.7800   21.2080 C   0  0  0  0  0  0  0  0  0  0  0  0
   27.3000   10.8010   20.4650 C   0  0  0  0  0  0  0  0  0  0  0  0
   28.0930   11.9190   20.2200 C   0  0  0  0  0  0  0  0  0  0  0  0
   29.3850   11.9780   20.7130 C   0  0  0  0  0  0  0  0  0  0  0  0
    0.0000    0.0000    0.0000 H   0  0  0  0  0  0  0  0  0  0  0  0
    0.0000    0.0000    0.0000 H   0  0  0  0  0  0  0  0  0  0  0  0
    0.0000    0.0000    0.0000 H   0  0  0  0  0  0  0  0  0  0  0  0
    0.0000    0.0000    0.0000 H   0  0  0  0  0  0  0  0  0  0  0  0
    0.0000    0.0000    0.0000 H   0  0  0  0  0  0  0  0  0  0  0  0
    0.0000    0.0000    0.0000 H   0  0  0  0  0  0  0  0  0  0  0  0
    0.0000    0.0000    0.0000 H   0  0  0  0  0  0  0  0  0  0  0  0
    0.0000    0.0000    0.0000 H   0  0  0  0  0  0  0  0  0  0  0  0
    0.0000    0.0000    0.0000 H   0  0  0  0  0  0  0  0  0  0  0  0
    0.0000    0.0000    0.0000 H   0  0  0  0  0  0  0  0  0  0  0  0
    0.0000    0.0000    0.0000 H   0  0  0  0  0  0  0  0  0  0  0  0
    0.0000    0.0000    0.0000 H   0  0  0  0  0  0  0  0  0  0  0  0
    0.0000    0.0000    0.0000 H   0  0  0  0  0  0  0  0  0  0  0  0
   11.0054    5.2556   10.6221 O   0  0  0  0  0  0  0  0  0  0  0  0
    9.8433    5.0058    9.9269 C   0  0  0  0  0  0  0  0  0  0  0  0
    9.9691    5.4191    8.6170 F   0  0  0  0  0  0  0  0  0  0  0  0
    9.5660    3.6474    9.9863 F   0  0  0  0  0  0  0  0  0  0  0  0
    8.9810    5.5190   10.3868 H   0  0  0  0  0  0  0  0  0  0  0  0
  1  3  2  0
  1  4  1  0
  2  4  1  0
  1  5  1  0
  2  6  1  0
  5  6  1  0
  6  7  2  3
  5  8  1  0
  4 10  1  0
 10 11  2  0
 11 12  1  0
 12 13  2  0
 13 14  1  0
 10 15  1  0
 14 15  2  0
  9 16  2  0
  9 17  1  0
 14 18  1  0
 17 18  2  0
 18 19  1  0
 16 20  1  0
 19 20  2  0
  2 21  1  0
  7 22  1  0
  8 23  1  0
  8 24  1  0
  8 25  1  0
 11 26  1  0
 12 27  1  0
 13 28  1  0
 15 29  1  0
 16 30  1  0
 17 31  1  0
 19 32  1  0
 20 33  1  0
 34 35  1  0
 35 36  1  0
 35 37  1  0
 35 38  1  0
  4 34  1  6
M  END
>  <attachment_point>  (215) 
21

>  <score>  (215) 
<NA>

$$$$
4djw
     RDKit          3D

 51 54  0  0  0  0  0  0  0  0999 V2000
   22.4950   11.8750   22.5810 C   0  0  0  0  0  0  0  0  0  0  0  0
   22.5380    9.4930   22.4640 N   0  0  0  0  0  0  0  0  0  0  0  0
   22.3600   13.0630   22.3480 O   0  0  0  0  0  0  0  0  0  0  0  0
   22.3390   10.6680   21.5610 C   0  0  2  0  0  0  0  0  0  0  0  0
   22.7860   11.3350   23.8120 N   0  0  0  0  0  0  0  0  0  0  0  0
   22.7800    9.9140   23.7010 C   0  0  0  0  0  0  0  0  0  0  0  0
   22.9970    9.1110   24.7490 N   0  0  0  0  0  0  0  0  0  0  0  0
   23.0220   12.1410   25.0180 C   0  0  0  0  0  0  0  0  0  0  0  0
   29.1260    9.8230   21.7090 N   0  0  0  0  0  0  0  0  0  0  0  0
   23.4880   10.6920   20.5300 C   0  0  0  0  0  0  0  0  0  0  0  0
   23.2110   10.7890   19.1730 C   0  0  0  0  0  0  0  0  0  0  0  0
   24.2350   10.8650   18.2430 C   0  0  0  0  0  0  0  0  0  0  0  0
   25.5500   10.8410   18.6560 C   0  0  0  0  0  0  0  0  0  0  0  0
   25.8710   10.7460   20.0070 C   0  0  0  0  0  0  0  0  0  0  0  0
   24.8260   10.6610   20.9430 C   0  0  0  0  0  0  0  0  0  0  0  0
   29.8540   10.9130   21.4510 C   0  0  0  0  0  0  0  0  0  0  0  0
   27.8830    9.7800   21.2080 C   0  0  0  0  0  0  0  0  0  0  0  0
   27.3000   10.8010   20.4650 C   0  0  0  0  0  0  0  0  0  0  0  0
   28.0930   11.9190   20.2200 C   0  0  0  0  0  0  0  0  0  0  0  0
   29.3850   11.9780   20.7130 C   0  0  0  0  0  0  0  0  0  0  0  0
    0.0000    0.0000    0.0000 H   0  0  0  0  0  0  0  0  0  0  0  0
    0.0000    0.0000    0.0000 H   0  0  0  0  0  0  0  0  0  0  0  0
    0.0000    0.0000    0.0000 H   0  0  0  0  0  0  0  0  0  0  0  0
    0.0000    0.0000    0.0000 H   0  0  0  0  0  0  0  0  0  0  0  0
    0.0000    0.0000    0.0000 H   0  0  0  0  0  0  0  0  0  0  0  0
    0.0000    0.0000    0.0000 H   0  0  0  0  0  0  0  0  0  0  0  0
    0.0000    0.0000    0.0000 H   0  0  0  0  0  0  0  0  0  0  0  0
    0.0000    0.0000    0.0000 H   0  0  0  0  0  0  0  0  0  0  0  0
    0.0000    0.0000    0.0000 H   0  0  0  0  0  0  0  0  0  0  0  0
    0.0000    0.0000    0.0000 H   0  0  0  0  0  0  0  0  0  0  0  0
    0.0000    0.0000    0.0000 H   0  0  0  0  0  0  0  0  0  0  0  0
    0.0000    0.0000    0.0000 H   0  0  0  0  0  0  0  0  0  0  0  0
    0.0000    0.0000    0.0000 H   0  0  0  0  0  0  0  0  0  0  0  0
   10.8958    5.2033   10.5163 N   0  0  0  0  0  0  0  0  0  0  0  0
    9.4924    5.3736   10.6658 C   0  0  0  0  0  0  0  0  0  0  0  0
    9.1038    5.9741   11.6978 O   0  0  0  0  0  0  0  0  0  0  0  0
    8.5937    4.8567    9.6411 C   0  0  0  0  0  0  0  0  0  0  0  0
    7.1748    5.0786    9.8821 C   0  0  0  0  0  0  0  0  0  0  0  0
    6.3483    4.2064   10.5614 C   0  0  0  0  0  0  0  0  0  0  0  0
    5.0147    4.4634   10.7625 C   0  0  0  0  0  0  0  0  0  0  0  0
    4.4447    5.6269   10.2818 C   0  0  0  0  0  0  0  0  0  0  0  0
    5.2589    6.5030    9.6036 C   0  0  0  0  0  0  0  0  0  0  0  0
    6.5999    6.2384    9.4047 C   0  0  0  0  0  0  0  0  0  0  0  0
   11.3021    4.7084    9.6753 H   0  0  0  0  0  0  0  0  0  0  0  0
    8.8620    5.3386    8.6666 H   0  0  0  0  0  0  0  0  0  0  0  0
    8.8025    3.7719    9.4863 H   0  0  0  0  0  0  0  0  0  0  0  0
    6.7995    3.3034   10.9323 H   0  0  0  0  0  0  0  0  0  0  0  0
    4.4231    3.7282   11.3084 H   0  0  0  0  0  0  0  0  0  0  0  0
    3.3849    5.8117   10.4522 H   0  0  0  0  0  0  0  0  0  0  0  0
    4.8231    7.4013    9.2313 H   0  0  0  0  0  0  0  0  0  0  0  0
    7.1724    6.9742    8.8633 H   0  0  0  0  0  0  0  0  0  0  0  0
  1  3  2  0
  1  4  1  0
  2  4  1  0
  1  5  1  0
  2  6  1  0
  5  6  1  0
  6  7  2  3
  5  8  1  0
  4 10  1  0
 10 11  2  0
 11 12  1  0
 12 13  2  0
 13 14  1  0
 10 15  1  0
 14 15  2  0
  9 16  2  0
  9 17  1  0
 14 18  1  0
 17 18  2  0
 18 19  1  0
 16 20  1  0
 19 20  2  0
  2 21  1  0
  7 22  1  0
  8 23  1  0
  8 24  1  0
  8 25  1  0
 11 26  1  0
 12 27  1  0
 13 28  1  0
 15 29  1  0
 16 30  1  0
 17 31  1  0
 19 32  1  0
 20 33  1  0
 34 35  1  0
 35 36  2  0
 35 37  1  0
 37 38  1  0
 38 39  2  0
 39 40  1  0
 40 41  2  0
 41 42  1  0
 42 43  2  0
 43 38  1  0
 34 44  1  0
 37 45  1  0
 37 46  1  0
 39 47  1  0
 40 48  1  0
 41 49  1  0
 42 50  1  0
 43 51  1  0
  4 34  1  6
M  END
>  <attachment_point>  (216) 
21

>  <score>  (216) 
<NA>

$$$$
4djw
     RDKit          3D

 46 49  0  0  0  0  0  0  0  0999 V2000
   22.4950   11.8750   22.5810 C   0  0  0  0  0  0  0  0  0  0  0  0
   22.5380    9.4930   22.4640 N   0  0  0  0  0  0  0  0  0  0  0  0
   22.3600   13.0630   22.3480 O   0  0  0  0  0  0  0  0  0  0  0  0
   22.3390   10.6680   21.5610 C   0  0  2  0  0  0  0  0  0  0  0  0
   22.7860   11.3350   23.8120 N   0  0  0  0  0  0  0  0  0  0  0  0
   22.7800    9.9140   23.7010 C   0  0  0  0  0  0  0  0  0  0  0  0
   22.9970    9.1110   24.7490 N   0  0  0  0  0  0  0  0  0  0  0  0
   23.0220   12.1410   25.0180 C   0  0  0  0  0  0  0  0  0  0  0  0
   29.1260    9.8230   21.7090 N   0  0  0  0  0  0  0  0  0  0  0  0
   23.4880   10.6920   20.5300 C   0  0  0  0  0  0  0  0  0  0  0  0
   23.2110   10.7890   19.1730 C   0  0  0  0  0  0  0  0  0  0  0  0
   24.2350   10.8650   18.2430 C   0  0  0  0  0  0  0  0  0  0  0  0
   25.5500   10.8410   18.6560 C   0  0  0  0  0  0  0  0  0  0  0  0
   25.8710   10.7460   20.0070 C   0  0  0  0  0  0  0  0  0  0  0  0
   24.8260   10.6610   20.9430 C   0  0  0  0  0  0  0  0  0  0  0  0
   29.8540   10.9130   21.4510 C   0  0  0  0  0  0  0  0  0  0  0  0
   27.8830    9.7800   21.2080 C   0  0  0  0  0  0  0  0  0  0  0  0
   27.3000   10.8010   20.4650 C   0  0  0  0  0  0  0  0  0  0  0  0
   28.0930   11.9190   20.2200 C   0  0  0  0  0  0  0  0  0  0  0  0
   29.3850   11.9780   20.7130 C   0  0  0  0  0  0  0  0  0  0  0  0
    0.0000    0.0000    0.0000 H   0  0  0  0  0  0  0  0  0  0  0  0
    0.0000    0.0000    0.0000 H   0  0  0  0  0  0  0  0  0  0  0  0
    0.0000    0.0000    0.0000 H   0  0  0  0  0  0  0  0  0  0  0  0
    0.0000    0.0000    0.0000 H   0  0  0  0  0  0  0  0  0  0  0  0
    0.0000    0.0000    0.0000 H   0  0  0  0  0  0  0  0  0  0  0  0
    0.0000    0.0000    0.0000 H   0  0  0  0  0  0  0  0  0  0  0  0
    0.0000    0.0000    0.0000 H   0  0  0  0  0  0  0  0  0  0  0  0
    0.0000    0.0000    0.0000 H   0  0  0  0  0  0  0  0  0  0  0  0
    0.0000    0.0000    0.0000 H   0  0  0  0  0  0  0  0  0  0  0  0
    0.0000    0.0000    0.0000 H   0  0  0  0  0  0  0  0  0  0  0  0
    0.0000    0.0000    0.0000 H   0  0  0  0  0  0  0  0  0  0  0  0
    0.0000    0.0000    0.0000 H   0  0  0  0  0  0  0  0  0  0  0  0
    0.0000    0.0000    0.0000 H   0  0  0  0  0  0  0  0  0  0  0  0
   10.8874    5.1993   10.5082 C   0  0  0  0  0  0  0  0  0  0  0  0
    9.6788    5.2106   10.8492 O   0  0  0  0  0  0  0  0  0  0  0  0
   11.2526    4.7186    9.1829 C   0  0  0  0  0  0  0  0  0  0  0  0
   10.2935    4.2725    8.2878 C   0  0  0  0  0  0  0  0  0  0  0  0
   10.6107    3.8122    7.0269 C   0  0  0  0  0  0  0  0  0  0  0  0
   11.9187    3.7791    6.6050 C   0  0  0  0  0  0  0  0  0  0  0  0
   12.2297    3.3251    5.3619 F   0  0  0  0  0  0  0  0  0  0  0  0
   12.8780    4.2210    7.4892 C   0  0  0  0  0  0  0  0  0  0  0  0
   12.5650    4.6817    8.7500 C   0  0  0  0  0  0  0  0  0  0  0  0
    9.2513    4.2974    8.6200 H   0  0  0  0  0  0  0  0  0  0  0  0
    9.8608    3.4644    6.3294 H   0  0  0  0  0  0  0  0  0  0  0  0
   13.9064    4.1941    7.1554 H   0  0  0  0  0  0  0  0  0  0  0  0
   13.3548    5.0150    9.4003 H   0  0  0  0  0  0  0  0  0  0  0  0
  1  3  2  0
  1  4  1  0
  2  4  1  0
  1  5  1  0
  2  6  1  0
  5  6  1  0
  6  7  2  3
  5  8  1  0
  4 10  1  0
 10 11  2  0
 11 12  1  0
 12 13  2  0
 13 14  1  0
 10 15  1  0
 14 15  2  0
  9 16  2  0
  9 17  1  0
 14 18  1  0
 17 18  2  0
 18 19  1  0
 16 20  1  0
 19 20  2  0
  2 21  1  0
  7 22  1  0
  8 23  1  0
  8 24  1  0
  8 25  1  0
 11 26  1  0
 12 27  1  0
 13 28  1  0
 15 29  1  0
 16 30  1  0
 17 31  1  0
 19 32  1  0
 20 33  1  0
 34 35  2  0
 34 36  1  0
 36 37  2  0
 37 38  1  0
 38 39  2  0
 39 40  1  0
 39 41  1  0
 41 42  2  0
 42 36  1  0
 37 43  1  0
 38 44  1  0
 41 45  1  0
 42 46  1  0
  4 34  1  6
M  END
>  <attachment_point>  (217) 
21

>  <score>  (217) 
<NA>

$$$$
4djw
     RDKit          3D

 50 52  0  0  0  0  0  0  0  0999 V2000
   22.4950   11.8750   22.5810 C   0  0  0  0  0  0  0  0  0  0  0  0
   22.5380    9.4930   22.4640 N   0  0  0  0  0  0  0  0  0  0  0  0
   22.3600   13.0630   22.3480 O   0  0  0  0  0  0  0  0  0  0  0  0
   22.3390   10.6680   21.5610 C   0  0  2  0  0  0  0  0  0  0  0  0
   22.7860   11.3350   23.8120 N   0  0  0  0  0  0  0  0  0  0  0  0
   22.7800    9.9140   23.7010 C   0  0  0  0  0  0  0  0  0  0  0  0
   22.9970    9.1110   24.7490 N   0  0  0  0  0  0  0  0  0  0  0  0
   23.0220   12.1410   25.0180 C   0  0  0  0  0  0  0  0  0  0  0  0
   29.1260    9.8230   21.7090 N   0  0  0  0  0  0  0  0  0  0  0  0
   23.4880   10.6920   20.5300 C   0  0  0  0  0  0  0  0  0  0  0  0
   23.2110   10.7890   19.1730 C   0  0  0  0  0  0  0  0  0  0  0  0
   24.2350   10.8650   18.2430 C   0  0  0  0  0  0  0  0  0  0  0  0
   25.5500   10.8410   18.6560 C   0  0  0  0  0  0  0  0  0  0  0  0
   25.8710   10.7460   20.0070 C   0  0  0  0  0  0  0  0  0  0  0  0
   24.8260   10.6610   20.9430 C   0  0  0  0  0  0  0  0  0  0  0  0
   29.8540   10.9130   21.4510 C   0  0  0  0  0  0  0  0  0  0  0  0
   27.8830    9.7800   21.2080 C   0  0  0  0  0  0  0  0  0  0  0  0
   27.3000   10.8010   20.4650 C   0  0  0  0  0  0  0  0  0  0  0  0
   28.0930   11.9190   20.2200 C   0  0  0  0  0  0  0  0  0  0  0  0
   29.3850   11.9780   20.7130 C   0  0  0  0  0  0  0  0  0  0  0  0
    0.0000    0.0000    0.0000 H   0  0  0  0  0  0  0  0  0  0  0  0
    0.0000    0.0000    0.0000 H   0  0  0  0  0  0  0  0  0  0  0  0
    0.0000    0.0000    0.0000 H   0  0  0  0  0  0  0  0  0  0  0  0
    0.0000    0.0000    0.0000 H   0  0  0  0  0  0  0  0  0  0  0  0
    0.0000    0.0000    0.0000 H   0  0  0  0  0  0  0  0  0  0  0  0
    0.0000    0.0000    0.0000 H   0  0  0  0  0  0  0  0  0  0  0  0
    0.0000    0.0000    0.0000 H   0  0  0  0  0  0  0  0  0  0  0  0
    0.0000    0.0000    0.0000 H   0  0  0  0  0  0  0  0  0  0  0  0
    0.0000    0.0000    0.0000 H   0  0  0  0  0  0  0  0  0  0  0  0
    0.0000    0.0000    0.0000 H   0  0  0  0  0  0  0  0  0  0  0  0
    0.0000    0.0000    0.0000 H   0  0  0  0  0  0  0  0  0  0  0  0
    0.0000    0.0000    0.0000 H   0  0  0  0  0  0  0  0  0  0  0  0
    0.0000    0.0000    0.0000 H   0  0  0  0  0  0  0  0  0  0  0  0
   10.8748    5.1933   10.4960 C   0  0  0  0  0  0  0  0  0  0  0  0
   10.9057    5.4620    9.2728 O   0  0  0  0  0  0  0  0  0  0  0  0
    9.7776    4.3778   10.8766 N   0  0  0  0  0  0  0  0  0  0  0  0
    8.8355    3.9313    9.9508 C   0  0  0  0  0  0  0  0  0  0  0  0
    7.8071    3.0889   10.6920 C   0  0  0  0  0  0  0  0  0  0  0  0
    8.0423    5.1697    9.4844 C   0  0  0  0  0  0  0  0  0  0  0  0
    9.2539    3.1744    8.7627 C   0  0  0  0  0  0  0  0  0  0  0  0
    9.6711    4.1010   11.8894 H   0  0  0  0  0  0  0  0  0  0  0  0
    7.0511    2.6635   10.0041 H   0  0  0  0  0  0  0  0  0  0  0  0
    7.3592    3.6722   11.5144 H   0  0  0  0  0  0  0  0  0  0  0  0
    8.3915    2.2680   11.1824 H   0  0  0  0  0  0  0  0  0  0  0  0
    6.9726    4.9068    9.3299 H   0  0  0  0  0  0  0  0  0  0  0  0
    8.1867    6.0138   10.1665 H   0  0  0  0  0  0  0  0  0  0  0  0
    8.4225    5.4893    8.4824 H   0  0  0  0  0  0  0  0  0  0  0  0
    9.3102    2.0665    8.9738 H   0  0  0  0  0  0  0  0  0  0  0  0
    8.4605    3.2573    7.9825 H   0  0  0  0  0  0  0  0  0  0  0  0
   10.1872    3.4352    8.2821 H   0  0  0  0  0  0  0  0  0  0  0  0
  1  3  2  0
  1  4  1  0
  2  4  1  0
  1  5  1  0
  2  6  1  0
  5  6  1  0
  6  7  2  3
  5  8  1  0
  4 10  1  0
 10 11  2  0
 11 12  1  0
 12 13  2  0
 13 14  1  0
 10 15  1  0
 14 15  2  0
  9 16  2  0
  9 17  1  0
 14 18  1  0
 17 18  2  0
 18 19  1  0
 16 20  1  0
 19 20  2  0
  2 21  1  0
  7 22  1  0
  8 23  1  0
  8 24  1  0
  8 25  1  0
 11 26  1  0
 12 27  1  0
 13 28  1  0
 15 29  1  0
 16 30  1  0
 17 31  1  0
 19 32  1  0
 20 33  1  0
 34 35  2  0
 34 36  1  0
 36 37  1  0
 37 38  1  0
 37 39  1  0
 37 40  1  0
 36 41  1  0
 38 42  1  0
 38 43  1  0
 38 44  1  0
 39 45  1  0
 39 46  1  0
 39 47  1  0
 40 48  1  0
 40 49  1  0
 40 50  1  0
  4 34  1  6
M  END
>  <attachment_point>  (218) 
21

>  <score>  (218) 
<NA>

$$$$
4djw
     RDKit          3D

 47 49  0  0  0  0  0  0  0  0999 V2000
   22.4950   11.8750   22.5810 C   0  0  0  0  0  0  0  0  0  0  0  0
   22.5380    9.4930   22.4640 N   0  0  0  0  0  0  0  0  0  0  0  0
   22.3600   13.0630   22.3480 O   0  0  0  0  0  0  0  0  0  0  0  0
   22.3390   10.6680   21.5610 C   0  0  2  0  0  0  0  0  0  0  0  0
   22.7860   11.3350   23.8120 N   0  0  0  0  0  0  0  0  0  0  0  0
   22.7800    9.9140   23.7010 C   0  0  0  0  0  0  0  0  0  0  0  0
   22.9970    9.1110   24.7490 N   0  0  0  0  0  0  0  0  0  0  0  0
   23.0220   12.1410   25.0180 C   0  0  0  0  0  0  0  0  0  0  0  0
   29.1260    9.8230   21.7090 N   0  0  0  0  0  0  0  0  0  0  0  0
   23.4880   10.6920   20.5300 C   0  0  0  0  0  0  0  0  0  0  0  0
   23.2110   10.7890   19.1730 C   0  0  0  0  0  0  0  0  0  0  0  0
   24.2350   10.8650   18.2430 C   0  0  0  0  0  0  0  0  0  0  0  0
   25.5500   10.8410   18.6560 C   0  0  0  0  0  0  0  0  0  0  0  0
   25.8710   10.7460   20.0070 C   0  0  0  0  0  0  0  0  0  0  0  0
   24.8260   10.6610   20.9430 C   0  0  0  0  0  0  0  0  0  0  0  0
   29.8540   10.9130   21.4510 C   0  0  0  0  0  0  0  0  0  0  0  0
   27.8830    9.7800   21.2080 C   0  0  0  0  0  0  0  0  0  0  0  0
   27.3000   10.8010   20.4650 C   0  0  0  0  0  0  0  0  0  0  0  0
   28.0930   11.9190   20.2200 C   0  0  0  0  0  0  0  0  0  0  0  0
   29.3850   11.9780   20.7130 C   0  0  0  0  0  0  0  0  0  0  0  0
    0.0000    0.0000    0.0000 H   0  0  0  0  0  0  0  0  0  0  0  0
    0.0000    0.0000    0.0000 H   0  0  0  0  0  0  0  0  0  0  0  0
    0.0000    0.0000    0.0000 H   0  0  0  0  0  0  0  0  0  0  0  0
    0.0000    0.0000    0.0000 H   0  0  0  0  0  0  0  0  0  0  0  0
    0.0000    0.0000    0.0000 H   0  0  0  0  0  0  0  0  0  0  0  0
    0.0000    0.0000    0.0000 H   0  0  0  0  0  0  0  0  0  0  0  0
    0.0000    0.0000    0.0000 H   0  0  0  0  0  0  0  0  0  0  0  0
    0.0000    0.0000    0.0000 H   0  0  0  0  0  0  0  0  0  0  0  0
    0.0000    0.0000    0.0000 H   0  0  0  0  0  0  0  0  0  0  0  0
    0.0000    0.0000    0.0000 H   0  0  0  0  0  0  0  0  0  0  0  0
    0.0000    0.0000    0.0000 H   0  0  0  0  0  0  0  0  0  0  0  0
    0.0000    0.0000    0.0000 H   0  0  0  0  0  0  0  0  0  0  0  0
    0.0000    0.0000    0.0000 H   0  0  0  0  0  0  0  0  0  0  0  0
   10.8741    5.1929   10.4954 C   0  0  0  0  0  0  0  0  0  0  0  0
   10.1711    4.1914   10.8376 O   0  0  0  0  0  0  0  0  0  0  0  0
   10.6713    5.7937    9.2297 N   0  0  0  0  0  0  0  0  0  0  0  0
    9.6893    5.3281    8.2766 C   0  0  0  0  0  0  0  0  0  0  0  0
    9.9339    3.8981    7.8606 C   0  0  0  0  0  0  0  0  0  0  0  0
   11.2838    3.7183    7.2146 C   0  0  0  0  0  0  0  0  0  0  0  0
   11.2675    6.6094    8.9913 H   0  0  0  0  0  0  0  0  0  0  0  0
    9.6040    5.9848    7.3990 H   0  0  0  0  0  0  0  0  0  0  0  0
    8.6850    5.3293    8.7885 H   0  0  0  0  0  0  0  0  0  0  0  0
    9.1740    3.6108    7.1209 H   0  0  0  0  0  0  0  0  0  0  0  0
    9.8260    3.2396    8.7323 H   0  0  0  0  0  0  0  0  0  0  0  0
   11.3177    4.1508    6.2016 H   0  0  0  0  0  0  0  0  0  0  0  0
   12.0347    4.1477    7.9067 H   0  0  0  0  0  0  0  0  0  0  0  0
   11.4365    2.6131    7.1089 H   0  0  0  0  0  0  0  0  0  0  0  0
  1  3  2  0
  1  4  1  0
  2  4  1  0
  1  5  1  0
  2  6  1  0
  5  6  1  0
  6  7  2  3
  5  8  1  0
  4 10  1  0
 10 11  2  0
 11 12  1  0
 12 13  2  0
 13 14  1  0
 10 15  1  0
 14 15  2  0
  9 16  2  0
  9 17  1  0
 14 18  1  0
 17 18  2  0
 18 19  1  0
 16 20  1  0
 19 20  2  0
  2 21  1  0
  7 22  1  0
  8 23  1  0
  8 24  1  0
  8 25  1  0
 11 26  1  0
 12 27  1  0
 13 28  1  0
 15 29  1  0
 16 30  1  0
 17 31  1  0
 19 32  1  0
 20 33  1  0
 34 35  2  0
 34 36  1  0
 36 37  1  0
 37 38  1  0
 38 39  1  0
 36 40  1  0
 37 41  1  0
 37 42  1  0
 38 43  1  0
 38 44  1  0
 39 45  1  0
 39 46  1  0
 39 47  1  0
  4 34  1  6
M  END
>  <attachment_point>  (219) 
21

>  <score>  (219) 
<NA>

$$$$
4djw
     RDKit          3D

 39 42  0  0  0  0  0  0  0  0999 V2000
   22.4950   11.8750   22.5810 C   0  0  0  0  0  0  0  0  0  0  0  0
   22.5380    9.4930   22.4640 N   0  0  0  0  0  0  0  0  0  0  0  0
   22.3600   13.0630   22.3480 O   0  0  0  0  0  0  0  0  0  0  0  0
   22.3390   10.6680   21.5610 C   0  0  2  0  0  0  0  0  0  0  0  0
   22.7860   11.3350   23.8120 N   0  0  0  0  0  0  0  0  0  0  0  0
   22.7800    9.9140   23.7010 C   0  0  0  0  0  0  0  0  0  0  0  0
   22.9970    9.1110   24.7490 N   0  0  0  0  0  0  0  0  0  0  0  0
   23.0220   12.1410   25.0180 C   0  0  0  0  0  0  0  0  0  0  0  0
   29.1260    9.8230   21.7090 N   0  0  0  0  0  0  0  0  0  0  0  0
   23.4880   10.6920   20.5300 C   0  0  0  0  0  0  0  0  0  0  0  0
   23.2110   10.7890   19.1730 C   0  0  0  0  0  0  0  0  0  0  0  0
   24.2350   10.8650   18.2430 C   0  0  0  0  0  0  0  0  0  0  0  0
   25.5500   10.8410   18.6560 C   0  0  0  0  0  0  0  0  0  0  0  0
   25.8710   10.7460   20.0070 C   0  0  0  0  0  0  0  0  0  0  0  0
   24.8260   10.6610   20.9430 C   0  0  0  0  0  0  0  0  0  0  0  0
   29.8540   10.9130   21.4510 C   0  0  0  0  0  0  0  0  0  0  0  0
   27.8830    9.7800   21.2080 C   0  0  0  0  0  0  0  0  0  0  0  0
   27.3000   10.8010   20.4650 C   0  0  0  0  0  0  0  0  0  0  0  0
   28.0930   11.9190   20.2200 C   0  0  0  0  0  0  0  0  0  0  0  0
   29.3850   11.9780   20.7130 C   0  0  0  0  0  0  0  0  0  0  0  0
    0.0000    0.0000    0.0000 H   0  0  0  0  0  0  0  0  0  0  0  0
    0.0000    0.0000    0.0000 H   0  0  0  0  0  0  0  0  0  0  0  0
    0.0000    0.0000    0.0000 H   0  0  0  0  0  0  0  0  0  0  0  0
    0.0000    0.0000    0.0000 H   0  0  0  0  0  0  0  0  0  0  0  0
    0.0000    0.0000    0.0000 H   0  0  0  0  0  0  0  0  0  0  0  0
    0.0000    0.0000    0.0000 H   0  0  0  0  0  0  0  0  0  0  0  0
    0.0000    0.0000    0.0000 H   0  0  0  0  0  0  0  0  0  0  0  0
    0.0000    0.0000    0.0000 H   0  0  0  0  0  0  0  0  0  0  0  0
    0.0000    0.0000    0.0000 H   0  0  0  0  0  0  0  0  0  0  0  0
    0.0000    0.0000    0.0000 H   0  0  0  0  0  0  0  0  0  0  0  0
    0.0000    0.0000    0.0000 H   0  0  0  0  0  0  0  0  0  0  0  0
    0.0000    0.0000    0.0000 H   0  0  0  0  0  0  0  0  0  0  0  0
    0.0000    0.0000    0.0000 H   0  0  0  0  0  0  0  0  0  0  0  0
   10.8642    5.1882   10.4858 C   0  0  0  0  0  0  0  0  0  0  0  0
   10.1153    5.9361    9.6564 N   0  0  0  0  0  0  0  0  0  0  0  0
    9.3408    5.1338    8.9506 N   0  0  0  0  0  0  0  0  0  0  0  0
    9.6037    3.9035    9.3354 N   0  0  0  0  0  0  0  0  0  0  0  0
   10.5244    3.9160   10.2652 N   0  0  0  0  0  0  0  0  0  0  0  0
   10.9351    3.1092   10.7586 H   0  0  0  0  0  0  0  0  0  0  0  0
  1  3  2  0
  1  4  1  0
  2  4  1  0
  1  5  1  0
  2  6  1  0
  5  6  1  0
  6  7  2  3
  5  8  1  0
  4 10  1  6
 10 11  2  0
 11 12  1  0
 12 13  2  0
 13 14  1  0
 10 15  1  0
 14 15  2  0
  9 16  2  0
  9 17  1  0
 14 18  1  0
 17 18  2  0
 18 19  1  0
 16 20  1  0
 19 20  2  0
  2 21  1  0
  7 22  1  0
  8 23  1  0
  8 24  1  0
  8 25  1  0
 11 26  1  0
 12 27  1  0
 13 28  1  0
 15 29  1  0
 16 30  1  0
 17 31  1  0
 19 32  1  0
 20 33  1  0
 34 35  2  0
 35 36  1  0
 36 37  2  0
 37 38  1  0
 38 34  1  0
 38 39  1  0
  4 34  1  0
M  END
>  <attachment_point>  (220) 
21

>  <score>  (220) 
<NA>

$$$$
4djw
     RDKit          3D

 44 46  0  0  0  0  0  0  0  0999 V2000
   22.4950   11.8750   22.5810 C   0  0  0  0  0  0  0  0  0  0  0  0
   22.5380    9.4930   22.4640 N   0  0  0  0  0  0  0  0  0  0  0  0
   22.3600   13.0630   22.3480 O   0  0  0  0  0  0  0  0  0  0  0  0
   22.3390   10.6680   21.5610 C   0  0  2  0  0  0  0  0  0  0  0  0
   22.7860   11.3350   23.8120 N   0  0  0  0  0  0  0  0  0  0  0  0
   22.7800    9.9140   23.7010 C   0  0  0  0  0  0  0  0  0  0  0  0
   22.9970    9.1110   24.7490 N   0  0  0  0  0  0  0  0  0  0  0  0
   23.0220   12.1410   25.0180 C   0  0  0  0  0  0  0  0  0  0  0  0
   29.1260    9.8230   21.7090 N   0  0  0  0  0  0  0  0  0  0  0  0
   23.4880   10.6920   20.5300 C   0  0  0  0  0  0  0  0  0  0  0  0
   23.2110   10.7890   19.1730 C   0  0  0  0  0  0  0  0  0  0  0  0
   24.2350   10.8650   18.2430 C   0  0  0  0  0  0  0  0  0  0  0  0
   25.5500   10.8410   18.6560 C   0  0  0  0  0  0  0  0  0  0  0  0
   25.8710   10.7460   20.0070 C   0  0  0  0  0  0  0  0  0  0  0  0
   24.8260   10.6610   20.9430 C   0  0  0  0  0  0  0  0  0  0  0  0
   29.8540   10.9130   21.4510 C   0  0  0  0  0  0  0  0  0  0  0  0
   27.8830    9.7800   21.2080 C   0  0  0  0  0  0  0  0  0  0  0  0
   27.3000   10.8010   20.4650 C   0  0  0  0  0  0  0  0  0  0  0  0
   28.0930   11.9190   20.2200 C   0  0  0  0  0  0  0  0  0  0  0  0
   29.3850   11.9780   20.7130 C   0  0  0  0  0  0  0  0  0  0  0  0
    0.0000    0.0000    0.0000 H   0  0  0  0  0  0  0  0  0  0  0  0
    0.0000    0.0000    0.0000 H   0  0  0  0  0  0  0  0  0  0  0  0
    0.0000    0.0000    0.0000 H   0  0  0  0  0  0  0  0  0  0  0  0
    0.0000    0.0000    0.0000 H   0  0  0  0  0  0  0  0  0  0  0  0
    0.0000    0.0000    0.0000 H   0  0  0  0  0  0  0  0  0  0  0  0
    0.0000    0.0000    0.0000 H   0  0  0  0  0  0  0  0  0  0  0  0
    0.0000    0.0000    0.0000 H   0  0  0  0  0  0  0  0  0  0  0  0
    0.0000    0.0000    0.0000 H   0  0  0  0  0  0  0  0  0  0  0  0
    0.0000    0.0000    0.0000 H   0  0  0  0  0  0  0  0  0  0  0  0
    0.0000    0.0000    0.0000 H   0  0  0  0  0  0  0  0  0  0  0  0
    0.0000    0.0000    0.0000 H   0  0  0  0  0  0  0  0  0  0  0  0
    0.0000    0.0000    0.0000 H   0  0  0  0  0  0  0  0  0  0  0  0
    0.0000    0.0000    0.0000 H   0  0  0  0  0  0  0  0  0  0  0  0
   10.7668    5.1417   10.3918 C   0  0  0  0  0  0  0  0  0  0  0  0
   10.6643    3.8594   11.1102 C   0  0  0  0  0  0  0  0  0  0  0  0
   10.2120    4.0088   12.5652 C   0  0  0  0  0  0  0  0  0  0  0  0
   10.1357    2.7638   13.1862 O   0  0  0  0  0  0  0  0  0  0  0  0
   11.5016    5.2505    9.6265 H   0  0  0  0  0  0  0  0  0  0  0  0
   10.1461    5.9557   10.6845 H   0  0  0  0  0  0  0  0  0  0  0  0
   11.5918    3.3010   11.0303 H   0  0  0  0  0  0  0  0  0  0  0  0
    9.8668    3.2652   10.6265 H   0  0  0  0  0  0  0  0  0  0  0  0
   11.0001    4.6270   13.0636 H   0  0  0  0  0  0  0  0  0  0  0  0
    9.2665    4.5509   12.6357 H   0  0  0  0  0  0  0  0  0  0  0  0
    9.6138    2.1417   12.6458 H   0  0  0  0  0  0  0  0  0  0  0  0
  1  3  2  0
  1  4  1  0
  2  4  1  0
  1  5  1  0
  2  6  1  0
  5  6  1  0
  6  7  2  3
  5  8  1  0
  4 10  1  0
 10 11  2  0
 11 12  1  0
 12 13  2  0
 13 14  1  0
 10 15  1  0
 14 15  2  0
  9 16  2  0
  9 17  1  0
 14 18  1  0
 17 18  2  0
 18 19  1  0
 16 20  1  0
 19 20  2  0
  2 21  1  0
  7 22  1  0
  8 23  1  0
  8 24  1  0
  8 25  1  0
 11 26  1  0
 12 27  1  0
 13 28  1  0
 15 29  1  0
 16 30  1  0
 17 31  1  0
 19 32  1  0
 20 33  1  0
 34 35  1  0
 35 36  1  0
 36 37  1  0
 34 38  1  0
 34 39  1  0
 35 40  1  0
 35 41  1  0
 36 42  1  0
 36 43  1  0
 37 44  1  0
  4 34  1  6
M  END
>  <attachment_point>  (221) 
21

>  <score>  (221) 
<NA>

$$$$
4djw
     RDKit          3D

 46 49  0  0  0  0  0  0  0  0999 V2000
   22.4950   11.8750   22.5810 C   0  0  0  0  0  0  0  0  0  0  0  0
   22.5380    9.4930   22.4640 N   0  0  0  0  0  0  0  0  0  0  0  0
   22.3600   13.0630   22.3480 O   0  0  0  0  0  0  0  0  0  0  0  0
   22.3390   10.6680   21.5610 C   0  0  2  0  0  0  0  0  0  0  0  0
   22.7860   11.3350   23.8120 N   0  0  0  0  0  0  0  0  0  0  0  0
   22.7800    9.9140   23.7010 C   0  0  0  0  0  0  0  0  0  0  0  0
   22.9970    9.1110   24.7490 N   0  0  0  0  0  0  0  0  0  0  0  0
   23.0220   12.1410   25.0180 C   0  0  0  0  0  0  0  0  0  0  0  0
   29.1260    9.8230   21.7090 N   0  0  0  0  0  0  0  0  0  0  0  0
   23.4880   10.6920   20.5300 C   0  0  0  0  0  0  0  0  0  0  0  0
   23.2110   10.7890   19.1730 C   0  0  0  0  0  0  0  0  0  0  0  0
   24.2350   10.8650   18.2430 C   0  0  0  0  0  0  0  0  0  0  0  0
   25.5500   10.8410   18.6560 C   0  0  0  0  0  0  0  0  0  0  0  0
   25.8710   10.7460   20.0070 C   0  0  0  0  0  0  0  0  0  0  0  0
   24.8260   10.6610   20.9430 C   0  0  0  0  0  0  0  0  0  0  0  0
   29.8540   10.9130   21.4510 C   0  0  0  0  0  0  0  0  0  0  0  0
   27.8830    9.7800   21.2080 C   0  0  0  0  0  0  0  0  0  0  0  0
   27.3000   10.8010   20.4650 C   0  0  0  0  0  0  0  0  0  0  0  0
   28.0930   11.9190   20.2200 C   0  0  0  0  0  0  0  0  0  0  0  0
   29.3850   11.9780   20.7130 C   0  0  0  0  0  0  0  0  0  0  0  0
    0.0000    0.0000    0.0000 H   0  0  0  0  0  0  0  0  0  0  0  0
    0.0000    0.0000    0.0000 H   0  0  0  0  0  0  0  0  0  0  0  0
    0.0000    0.0000    0.0000 H   0  0  0  0  0  0  0  0  0  0  0  0
    0.0000    0.0000    0.0000 H   0  0  0  0  0  0  0  0  0  0  0  0
    0.0000    0.0000    0.0000 H   0  0  0  0  0  0  0  0  0  0  0  0
    0.0000    0.0000    0.0000 H   0  0  0  0  0  0  0  0  0  0  0  0
    0.0000    0.0000    0.0000 H   0  0  0  0  0  0  0  0  0  0  0  0
    0.0000    0.0000    0.0000 H   0  0  0  0  0  0  0  0  0  0  0  0
    0.0000    0.0000    0.0000 H   0  0  0  0  0  0  0  0  0  0  0  0
    0.0000    0.0000    0.0000 H   0  0  0  0  0  0  0  0  0  0  0  0
    0.0000    0.0000    0.0000 H   0  0  0  0  0  0  0  0  0  0  0  0
    0.0000    0.0000    0.0000 H   0  0  0  0  0  0  0  0  0  0  0  0
    0.0000    0.0000    0.0000 H   0  0  0  0  0  0  0  0  0  0  0  0
   10.8547    5.1837   10.4766 C   0  0  0  0  0  0  0  0  0  0  0  0
    9.5194    5.3491   10.7693 C   0  0  0  0  0  0  0  0  0  0  0  0
    8.5297    4.9140    9.8878 C   0  0  0  0  0  0  0  0  0  0  0  0
    8.9241    4.3336    8.7544 N   0  0  0  0  0  0  0  0  0  0  0  0
   10.2190    4.1520    8.4289 C   0  0  0  0  0  0  0  0  0  0  0  0
   10.6433    3.5026    7.1602 C   0  0  0  0  0  0  0  0  0  0  0  0
   11.2179    4.5877    9.3119 C   0  0  0  0  0  0  0  0  0  0  0  0
    9.2695    5.8275   11.7056 H   0  0  0  0  0  0  0  0  0  0  0  0
    7.5015    5.0744   10.1781 H   0  0  0  0  0  0  0  0  0  0  0  0
    9.7819    2.9427    6.7363 H   0  0  0  0  0  0  0  0  0  0  0  0
   11.0308    4.2800    6.4504 H   0  0  0  0  0  0  0  0  0  0  0  0
   11.4667    2.7788    7.3365 H   0  0  0  0  0  0  0  0  0  0  0  0
   12.2365    4.4420    9.0500 H   0  0  0  0  0  0  0  0  0  0  0  0
  1  3  2  0
  1  4  1  0
  2  4  1  0
  1  5  1  0
  2  6  1  0
  5  6  1  0
  6  7  2  3
  5  8  1  0
  4 10  1  6
 10 11  2  0
 11 12  1  0
 12 13  2  0
 13 14  1  0
 10 15  1  0
 14 15  2  0
  9 16  2  0
  9 17  1  0
 14 18  1  0
 17 18  2  0
 18 19  1  0
 16 20  1  0
 19 20  2  0
  2 21  1  0
  7 22  1  0
  8 23  1  0
  8 24  1  0
  8 25  1  0
 11 26  1  0
 12 27  1  0
 13 28  1  0
 15 29  1  0
 16 30  1  0
 17 31  1  0
 19 32  1  0
 20 33  1  0
 34 35  2  0
 35 36  1  0
 36 37  2  0
 37 38  1  0
 38 39  1  0
 38 40  2  0
 40 34  1  0
 35 41  1  0
 36 42  1  0
 39 43  1  0
 39 44  1  0
 39 45  1  0
 40 46  1  0
  4 34  1  0
M  END
>  <attachment_point>  (222) 
21

>  <score>  (222) 
<NA>

$$$$
4djw
     RDKit          3D

 47 50  0  0  0  0  0  0  0  0999 V2000
   22.4950   11.8750   22.5810 C   0  0  0  0  0  0  0  0  0  0  0  0
   22.5380    9.4930   22.4640 N   0  0  0  0  0  0  0  0  0  0  0  0
   22.3600   13.0630   22.3480 O   0  0  0  0  0  0  0  0  0  0  0  0
   22.3390   10.6680   21.5610 C   0  0  2  0  0  0  0  0  0  0  0  0
   22.7860   11.3350   23.8120 N   0  0  0  0  0  0  0  0  0  0  0  0
   22.7800    9.9140   23.7010 C   0  0  0  0  0  0  0  0  0  0  0  0
   22.9970    9.1110   24.7490 N   0  0  0  0  0  0  0  0  0  0  0  0
   23.0220   12.1410   25.0180 C   0  0  0  0  0  0  0  0  0  0  0  0
   29.1260    9.8230   21.7090 N   0  0  0  0  0  0  0  0  0  0  0  0
   23.4880   10.6920   20.5300 C   0  0  0  0  0  0  0  0  0  0  0  0
   23.2110   10.7890   19.1730 C   0  0  0  0  0  0  0  0  0  0  0  0
   24.2350   10.8650   18.2430 C   0  0  0  0  0  0  0  0  0  0  0  0
   25.5500   10.8410   18.6560 C   0  0  0  0  0  0  0  0  0  0  0  0
   25.8710   10.7460   20.0070 C   0  0  0  0  0  0  0  0  0  0  0  0
   24.8260   10.6610   20.9430 C   0  0  0  0  0  0  0  0  0  0  0  0
   29.8540   10.9130   21.4510 C   0  0  0  0  0  0  0  0  0  0  0  0
   27.8830    9.7800   21.2080 C   0  0  0  0  0  0  0  0  0  0  0  0
   27.3000   10.8010   20.4650 C   0  0  0  0  0  0  0  0  0  0  0  0
   28.0930   11.9190   20.2200 C   0  0  0  0  0  0  0  0  0  0  0  0
   29.3850   11.9780   20.7130 C   0  0  0  0  0  0  0  0  0  0  0  0
    0.0000    0.0000    0.0000 H   0  0  0  0  0  0  0  0  0  0  0  0
    0.0000    0.0000    0.0000 H   0  0  0  0  0  0  0  0  0  0  0  0
    0.0000    0.0000    0.0000 H   0  0  0  0  0  0  0  0  0  0  0  0
    0.0000    0.0000    0.0000 H   0  0  0  0  0  0  0  0  0  0  0  0
    0.0000    0.0000    0.0000 H   0  0  0  0  0  0  0  0  0  0  0  0
    0.0000    0.0000    0.0000 H   0  0  0  0  0  0  0  0  0  0  0  0
    0.0000    0.0000    0.0000 H   0  0  0  0  0  0  0  0  0  0  0  0
    0.0000    0.0000    0.0000 H   0  0  0  0  0  0  0  0  0  0  0  0
    0.0000    0.0000    0.0000 H   0  0  0  0  0  0  0  0  0  0  0  0
    0.0000    0.0000    0.0000 H   0  0  0  0  0  0  0  0  0  0  0  0
    0.0000    0.0000    0.0000 H   0  0  0  0  0  0  0  0  0  0  0  0
    0.0000    0.0000    0.0000 H   0  0  0  0  0  0  0  0  0  0  0  0
    0.0000    0.0000    0.0000 H   0  0  0  0  0  0  0  0  0  0  0  0
   10.9266    5.2180   10.5461 N   0  0  0  0  0  0  0  0  0  0  0  0
   11.0641    3.8520   10.0437 C   0  0  0  0  0  0  0  0  0  0  0  0
   10.4024    2.9601   11.0725 C   0  0  0  0  0  0  0  0  0  0  0  0
    9.6966    3.9682   11.9838 C   0  0  2  0  0  0  0  0  0  0  0  0
    8.5266    3.4940   12.4980 O   0  0  0  0  0  0  0  0  0  0  0  0
    9.5403    5.1319   11.0413 C   0  0  0  0  0  0  0  0  0  0  0  0
   10.4091    3.8206    9.1321 H   0  0  0  0  0  0  0  0  0  0  0  0
   12.0992    3.5785    9.8457 H   0  0  0  0  0  0  0  0  0  0  0  0
   11.1560    2.3724   11.6091 H   0  0  0  0  0  0  0  0  0  0  0  0
    9.6707    2.2748   10.5981 H   0  0  0  0  0  0  0  0  0  0  0  0
   10.3578    4.2885   12.8097 H   0  0  0  0  0  0  0  0  0  0  0  0
    7.8296    3.3067   11.8480 H   0  0  0  0  0  0  0  0  0  0  0  0
    9.2047    6.0531   11.5045 H   0  0  0  0  0  0  0  0  0  0  0  0
    8.9502    4.7945   10.1699 H   0  0  0  0  0  0  0  0  0  0  0  0
  1  3  2  0
  1  4  1  0
  2  4  1  0
  1  5  1  0
  2  6  1  0
  5  6  1  0
  6  7  2  3
  5  8  1  0
  4 10  1  0
 10 11  2  0
 11 12  1  0
 12 13  2  0
 13 14  1  0
 10 15  1  0
 14 15  2  0
  9 16  2  0
  9 17  1  0
 14 18  1  0
 17 18  2  0
 18 19  1  0
 16 20  1  0
 19 20  2  0
  2 21  1  0
  7 22  1  0
  8 23  1  0
  8 24  1  0
  8 25  1  0
 11 26  1  0
 12 27  1  0
 13 28  1  0
 15 29  1  0
 16 30  1  0
 17 31  1  0
 19 32  1  0
 20 33  1  0
 34 35  1  0
 35 36  1  0
 36 37  1  0
 37 38  1  0
 37 39  1  0
 39 34  1  0
 35 40  1  0
 35 41  1  0
 36 42  1  0
 36 43  1  0
 37 44  1  1
 38 45  1  0
 39 46  1  0
 39 47  1  0
  4 34  1  6
M  END
>  <attachment_point>  (223) 
21

>  <score>  (223) 
<NA>

$$$$
4djw
     RDKit          3D

 54 58  0  0  0  0  0  0  0  0999 V2000
   22.4950   11.8750   22.5810 C   0  0  0  0  0  0  0  0  0  0  0  0
   22.5380    9.4930   22.4640 N   0  0  0  0  0  0  0  0  0  0  0  0
   22.3600   13.0630   22.3480 O   0  0  0  0  0  0  0  0  0  0  0  0
   22.3390   10.6680   21.5610 C   0  0  2  0  0  0  0  0  0  0  0  0
   22.7860   11.3350   23.8120 N   0  0  0  0  0  0  0  0  0  0  0  0
   22.7800    9.9140   23.7010 C   0  0  0  0  0  0  0  0  0  0  0  0
   22.9970    9.1110   24.7490 N   0  0  0  0  0  0  0  0  0  0  0  0
   23.0220   12.1410   25.0180 C   0  0  0  0  0  0  0  0  0  0  0  0
   29.1260    9.8230   21.7090 N   0  0  0  0  0  0  0  0  0  0  0  0
   23.4880   10.6920   20.5300 C   0  0  0  0  0  0  0  0  0  0  0  0
   23.2110   10.7890   19.1730 C   0  0  0  0  0  0  0  0  0  0  0  0
   24.2350   10.8650   18.2430 C   0  0  0  0  0  0  0  0  0  0  0  0
   25.5500   10.8410   18.6560 C   0  0  0  0  0  0  0  0  0  0  0  0
   25.8710   10.7460   20.0070 C   0  0  0  0  0  0  0  0  0  0  0  0
   24.8260   10.6610   20.9430 C   0  0  0  0  0  0  0  0  0  0  0  0
   29.8540   10.9130   21.4510 C   0  0  0  0  0  0  0  0  0  0  0  0
   27.8830    9.7800   21.2080 C   0  0  0  0  0  0  0  0  0  0  0  0
   27.3000   10.8010   20.4650 C   0  0  0  0  0  0  0  0  0  0  0  0
   28.0930   11.9190   20.2200 C   0  0  0  0  0  0  0  0  0  0  0  0
   29.3850   11.9780   20.7130 C   0  0  0  0  0  0  0  0  0  0  0  0
    0.0000    0.0000    0.0000 H   0  0  0  0  0  0  0  0  0  0  0  0
    0.0000    0.0000    0.0000 H   0  0  0  0  0  0  0  0  0  0  0  0
    0.0000    0.0000    0.0000 H   0  0  0  0  0  0  0  0  0  0  0  0
    0.0000    0.0000    0.0000 H   0  0  0  0  0  0  0  0  0  0  0  0
    0.0000    0.0000    0.0000 H   0  0  0  0  0  0  0  0  0  0  0  0
    0.0000    0.0000    0.0000 H   0  0  0  0  0  0  0  0  0  0  0  0
    0.0000    0.0000    0.0000 H   0  0  0  0  0  0  0  0  0  0  0  0
    0.0000    0.0000    0.0000 H   0  0  0  0  0  0  0  0  0  0  0  0
    0.0000    0.0000    0.0000 H   0  0  0  0  0  0  0  0  0  0  0  0
    0.0000    0.0000    0.0000 H   0  0  0  0  0  0  0  0  0  0  0  0
    0.0000    0.0000    0.0000 H   0  0  0  0  0  0  0  0  0  0  0  0
    0.0000    0.0000    0.0000 H   0  0  0  0  0  0  0  0  0  0  0  0
    0.0000    0.0000    0.0000 H   0  0  0  0  0  0  0  0  0  0  0  0
   10.8661    5.1891   10.4876 C   0  0  0  0  0  0  0  0  0  0  0  0
    9.5331    5.5231   10.6165 C   0  0  0  0  0  0  0  0  0  0  0  0
    8.5867    5.0800    9.7158 C   0  0  0  0  0  0  0  0  0  0  0  0
    9.0158    4.2868    8.6742 C   0  0  0  0  0  0  0  0  0  0  0  0
    8.0612    3.7891    7.6914 C   0  0  0  0  0  0  0  0  0  0  0  0
    8.3776    3.5523    6.3703 C   0  0  0  0  0  0  0  0  0  0  0  0
    7.4655    3.0821    5.4533 C   0  0  0  0  0  0  0  0  0  0  0  0
    6.1812    2.8393    5.8803 C   0  0  0  0  0  0  0  0  0  0  0  0
    5.8126    3.0607    7.1959 C   0  0  0  0  0  0  0  0  0  0  0  0
    6.7617    3.5310    8.0726 C   0  0  0  0  0  0  0  0  0  0  0  0
   10.3510    3.9622    8.5596 C   0  0  0  0  0  0  0  0  0  0  0  0
   11.3032    4.3943    9.4459 C   0  0  0  0  0  0  0  0  0  0  0  0
    9.2371    6.1556   11.4593 H   0  0  0  0  0  0  0  0  0  0  0  0
    7.5304    5.3565    9.8351 H   0  0  0  0  0  0  0  0  0  0  0  0
    9.3920    3.7434    6.0294 H   0  0  0  0  0  0  0  0  0  0  0  0
    7.7342    2.8997    4.4078 H   0  0  0  0  0  0  0  0  0  0  0  0
    5.4476    2.4639    5.1542 H   0  0  0  0  0  0  0  0  0  0  0  0
    4.7767    2.8558    7.5030 H   0  0  0  0  0  0  0  0  0  0  0  0
    6.4870    3.7079    9.1020 H   0  0  0  0  0  0  0  0  0  0  0  0
   10.6921    3.3317    7.7312 H   0  0  0  0  0  0  0  0  0  0  0  0
   12.3562    4.1648    9.3941 H   0  0  0  0  0  0  0  0  0  0  0  0
  1  3  2  0
  1  4  1  0
  2  4  1  0
  1  5  1  0
  2  6  1  0
  5  6  1  0
  6  7  2  3
  5  8  1  0
  4 10  1  6
 10 11  2  0
 11 12  1  0
 12 13  2  0
 13 14  1  0
 10 15  1  0
 14 15  2  0
  9 16  2  0
  9 17  1  0
 14 18  1  0
 17 18  2  0
 18 19  1  0
 16 20  1  0
 19 20  2  0
  2 21  1  0
  7 22  1  0
  8 23  1  0
  8 24  1  0
  8 25  1  0
 11 26  1  0
 12 27  1  0
 13 28  1  0
 15 29  1  0
 16 30  1  0
 17 31  1  0
 19 32  1  0
 20 33  1  0
 34 35  2  0
 35 36  1  0
 36 37  2  0
 37 38  1  0
 38 39  2  0
 39 40  1  0
 40 41  2  0
 41 42  1  0
 42 43  2  0
 37 44  1  0
 44 45  2  0
 45 34  1  0
 43 38  1  0
 35 46  1  0
 36 47  1  0
 39 48  1  0
 40 49  1  0
 41 50  1  0
 42 51  1  0
 43 52  1  0
 44 53  1  0
 45 54  1  0
  4 34  1  0
M  END
>  <attachment_point>  (224) 
21

>  <score>  (224) 
<NA>

$$$$
4djw
     RDKit          3D

 43 46  0  0  0  0  0  0  0  0999 V2000
   22.4950   11.8750   22.5810 C   0  0  0  0  0  0  0  0  0  0  0  0
   22.5380    9.4930   22.4640 N   0  0  0  0  0  0  0  0  0  0  0  0
   22.3600   13.0630   22.3480 O   0  0  0  0  0  0  0  0  0  0  0  0
   22.3390   10.6680   21.5610 C   0  0  2  0  0  0  0  0  0  0  0  0
   22.7860   11.3350   23.8120 N   0  0  0  0  0  0  0  0  0  0  0  0
   22.7800    9.9140   23.7010 C   0  0  0  0  0  0  0  0  0  0  0  0
   22.9970    9.1110   24.7490 N   0  0  0  0  0  0  0  0  0  0  0  0
   23.0220   12.1410   25.0180 C   0  0  0  0  0  0  0  0  0  0  0  0
   29.1260    9.8230   21.7090 N   0  0  0  0  0  0  0  0  0  0  0  0
   23.4880   10.6920   20.5300 C   0  0  0  0  0  0  0  0  0  0  0  0
   23.2110   10.7890   19.1730 C   0  0  0  0  0  0  0  0  0  0  0  0
   24.2350   10.8650   18.2430 C   0  0  0  0  0  0  0  0  0  0  0  0
   25.5500   10.8410   18.6560 C   0  0  0  0  0  0  0  0  0  0  0  0
   25.8710   10.7460   20.0070 C   0  0  0  0  0  0  0  0  0  0  0  0
   24.8260   10.6610   20.9430 C   0  0  0  0  0  0  0  0  0  0  0  0
   29.8540   10.9130   21.4510 C   0  0  0  0  0  0  0  0  0  0  0  0
   27.8830    9.7800   21.2080 C   0  0  0  0  0  0  0  0  0  0  0  0
   27.3000   10.8010   20.4650 C   0  0  0  0  0  0  0  0  0  0  0  0
   28.0930   11.9190   20.2200 C   0  0  0  0  0  0  0  0  0  0  0  0
   29.3850   11.9780   20.7130 C   0  0  0  0  0  0  0  0  0  0  0  0
    0.0000    0.0000    0.0000 H   0  0  0  0  0  0  0  0  0  0  0  0
    0.0000    0.0000    0.0000 H   0  0  0  0  0  0  0  0  0  0  0  0
    0.0000    0.0000    0.0000 H   0  0  0  0  0  0  0  0  0  0  0  0
    0.0000    0.0000    0.0000 H   0  0  0  0  0  0  0  0  0  0  0  0
    0.0000    0.0000    0.0000 H   0  0  0  0  0  0  0  0  0  0  0  0
    0.0000    0.0000    0.0000 H   0  0  0  0  0  0  0  0  0  0  0  0
    0.0000    0.0000    0.0000 H   0  0  0  0  0  0  0  0  0  0  0  0
    0.0000    0.0000    0.0000 H   0  0  0  0  0  0  0  0  0  0  0  0
    0.0000    0.0000    0.0000 H   0  0  0  0  0  0  0  0  0  0  0  0
    0.0000    0.0000    0.0000 H   0  0  0  0  0  0  0  0  0  0  0  0
    0.0000    0.0000    0.0000 H   0  0  0  0  0  0  0  0  0  0  0  0
    0.0000    0.0000    0.0000 H   0  0  0  0  0  0  0  0  0  0  0  0
    0.0000    0.0000    0.0000 H   0  0  0  0  0  0  0  0  0  0  0  0
   10.8671    5.1896   10.4887 N   0  0  0  0  0  0  0  0  0  0  0  0
    9.6841    4.9619   11.2663 C   0  0  0  0  0  0  0  0  0  0  0  0
    9.0438    6.0918   12.0271 C   0  0  0  0  0  0  0  0  0  0  0  0
    8.4128    5.5545   10.7946 C   0  0  0  0  0  0  0  0  0  0  0  0
   11.2483    4.2634   10.1935 H   0  0  0  0  0  0  0  0  0  0  0  0
    9.6698    3.9971   11.8295 H   0  0  0  0  0  0  0  0  0  0  0  0
    9.6057    7.0472   12.0117 H   0  0  0  0  0  0  0  0  0  0  0  0
    8.5314    5.9069   12.9849 H   0  0  0  0  0  0  0  0  0  0  0  0
    8.4141    6.2217    9.9224 H   0  0  0  0  0  0  0  0  0  0  0  0
    7.5088    4.9155   10.9460 H   0  0  0  0  0  0  0  0  0  0  0  0
  1  3  2  0
  1  4  1  0
  2  4  1  0
  1  5  1  0
  2  6  1  0
  5  6  1  0
  6  7  2  3
  5  8  1  0
  4 10  1  0
 10 11  2  0
 11 12  1  0
 12 13  2  0
 13 14  1  0
 10 15  1  0
 14 15  2  0
  9 16  2  0
  9 17  1  0
 14 18  1  0
 17 18  2  0
 18 19  1  0
 16 20  1  0
 19 20  2  0
  2 21  1  0
  7 22  1  0
  8 23  1  0
  8 24  1  0
  8 25  1  0
 11 26  1  0
 12 27  1  0
 13 28  1  0
 15 29  1  0
 16 30  1  0
 17 31  1  0
 19 32  1  0
 20 33  1  0
 34 35  1  0
 35 36  1  0
 36 37  1  0
 37 35  1  0
 34 38  1  0
 35 39  1  0
 36 40  1  0
 36 41  1  0
 37 42  1  0
 37 43  1  0
  4 34  1  6
M  END
>  <attachment_point>  (225) 
21

>  <score>  (225) 
<NA>

$$$$
4djw
     RDKit          3D

 45 48  0  0  0  0  0  0  0  0999 V2000
   22.4950   11.8750   22.5810 C   0  0  0  0  0  0  0  0  0  0  0  0
   22.5380    9.4930   22.4640 N   0  0  0  0  0  0  0  0  0  0  0  0
   22.3600   13.0630   22.3480 O   0  0  0  0  0  0  0  0  0  0  0  0
   22.3390   10.6680   21.5610 C   0  0  2  0  0  0  0  0  0  0  0  0
   22.7860   11.3350   23.8120 N   0  0  0  0  0  0  0  0  0  0  0  0
   22.7800    9.9140   23.7010 C   0  0  0  0  0  0  0  0  0  0  0  0
   22.9970    9.1110   24.7490 N   0  0  0  0  0  0  0  0  0  0  0  0
   23.0220   12.1410   25.0180 C   0  0  0  0  0  0  0  0  0  0  0  0
   29.1260    9.8230   21.7090 N   0  0  0  0  0  0  0  0  0  0  0  0
   23.4880   10.6920   20.5300 C   0  0  0  0  0  0  0  0  0  0  0  0
   23.2110   10.7890   19.1730 C   0  0  0  0  0  0  0  0  0  0  0  0
   24.2350   10.8650   18.2430 C   0  0  0  0  0  0  0  0  0  0  0  0
   25.5500   10.8410   18.6560 C   0  0  0  0  0  0  0  0  0  0  0  0
   25.8710   10.7460   20.0070 C   0  0  0  0  0  0  0  0  0  0  0  0
   24.8260   10.6610   20.9430 C   0  0  0  0  0  0  0  0  0  0  0  0
   29.8540   10.9130   21.4510 C   0  0  0  0  0  0  0  0  0  0  0  0
   27.8830    9.7800   21.2080 C   0  0  0  0  0  0  0  0  0  0  0  0
   27.3000   10.8010   20.4650 C   0  0  0  0  0  0  0  0  0  0  0  0
   28.0930   11.9190   20.2200 C   0  0  0  0  0  0  0  0  0  0  0  0
   29.3850   11.9780   20.7130 C   0  0  0  0  0  0  0  0  0  0  0  0
    0.0000    0.0000    0.0000 H   0  0  0  0  0  0  0  0  0  0  0  0
    0.0000    0.0000    0.0000 H   0  0  0  0  0  0  0  0  0  0  0  0
    0.0000    0.0000    0.0000 H   0  0  0  0  0  0  0  0  0  0  0  0
    0.0000    0.0000    0.0000 H   0  0  0  0  0  0  0  0  0  0  0  0
    0.0000    0.0000    0.0000 H   0  0  0  0  0  0  0  0  0  0  0  0
    0.0000    0.0000    0.0000 H   0  0  0  0  0  0  0  0  0  0  0  0
    0.0000    0.0000    0.0000 H   0  0  0  0  0  0  0  0  0  0  0  0
    0.0000    0.0000    0.0000 H   0  0  0  0  0  0  0  0  0  0  0  0
    0.0000    0.0000    0.0000 H   0  0  0  0  0  0  0  0  0  0  0  0
    0.0000    0.0000    0.0000 H   0  0  0  0  0  0  0  0  0  0  0  0
    0.0000    0.0000    0.0000 H   0  0  0  0  0  0  0  0  0  0  0  0
    0.0000    0.0000    0.0000 H   0  0  0  0  0  0  0  0  0  0  0  0
    0.0000    0.0000    0.0000 H   0  0  0  0  0  0  0  0  0  0  0  0
   10.8959    5.2033   10.5164 N   0  0  0  0  0  0  0  0  0  0  0  0
    9.5365    5.3723   10.8517 C   0  0  0  0  0  0  0  0  0  0  0  0
    9.1388    5.9057   11.9245 O   0  0  0  0  0  0  0  0  0  0  0  0
    8.4982    4.9038    9.9046 C   0  0  0  0  0  0  0  0  0  0  0  0
    8.7442    4.3011    8.6915 C   0  0  0  0  0  0  0  0  0  0  0  0
    7.5402    4.0051    8.0911 C   0  0  0  0  0  0  0  0  0  0  0  0
    6.6048    4.4567    8.9972 C   0  0  0  0  0  0  0  0  0  0  0  0
    7.2111    4.9699   10.0330 O   0  0  0  0  0  0  0  0  0  0  0  0
   11.1863    4.7534    9.6112 H   0  0  0  0  0  0  0  0  0  0  0  0
    9.7193    4.0848    8.2594 H   0  0  0  0  0  0  0  0  0  0  0  0
    7.3643    3.5283    7.1302 H   0  0  0  0  0  0  0  0  0  0  0  0
    5.5216    4.3746    8.8279 H   0  0  0  0  0  0  0  0  0  0  0  0
  1  3  2  0
  1  4  1  0
  2  4  1  0
  1  5  1  0
  2  6  1  0
  5  6  1  0
  6  7  2  3
  5  8  1  0
  4 10  1  0
 10 11  2  0
 11 12  1  0
 12 13  2  0
 13 14  1  0
 10 15  1  0
 14 15  2  0
  9 16  2  0
  9 17  1  0
 14 18  1  0
 17 18  2  0
 18 19  1  0
 16 20  1  0
 19 20  2  0
  2 21  1  0
  7 22  1  0
  8 23  1  0
  8 24  1  0
  8 25  1  0
 11 26  1  0
 12 27  1  0
 13 28  1  0
 15 29  1  0
 16 30  1  0
 17 31  1  0
 19 32  1  0
 20 33  1  0
 34 35  1  0
 35 36  2  0
 35 37  1  0
 37 38  2  0
 38 39  1  0
 39 40  2  0
 40 41  1  0
 41 37  1  0
 34 42  1  0
 38 43  1  0
 39 44  1  0
 40 45  1  0
  4 34  1  6
M  END
>  <attachment_point>  (226) 
21

>  <score>  (226) 
<NA>

$$$$
4djw
     RDKit          3D

 38 40  0  0  0  0  0  0  0  0999 V2000
   22.4950   11.8750   22.5810 C   0  0  0  0  0  0  0  0  0  0  0  0
   22.5380    9.4930   22.4640 N   0  0  0  0  0  0  0  0  0  0  0  0
   22.3600   13.0630   22.3480 O   0  0  0  0  0  0  0  0  0  0  0  0
   22.3390   10.6680   21.5610 C   0  0  2  0  0  0  0  0  0  0  0  0
   22.7860   11.3350   23.8120 N   0  0  0  0  0  0  0  0  0  0  0  0
   22.7800    9.9140   23.7010 C   0  0  0  0  0  0  0  0  0  0  0  0
   22.9970    9.1110   24.7490 N   0  0  0  0  0  0  0  0  0  0  0  0
   23.0220   12.1410   25.0180 C   0  0  0  0  0  0  0  0  0  0  0  0
   29.1260    9.8230   21.7090 N   0  0  0  0  0  0  0  0  0  0  0  0
   23.4880   10.6920   20.5300 C   0  0  0  0  0  0  0  0  0  0  0  0
   23.2110   10.7890   19.1730 C   0  0  0  0  0  0  0  0  0  0  0  0
   24.2350   10.8650   18.2430 C   0  0  0  0  0  0  0  0  0  0  0  0
   25.5500   10.8410   18.6560 C   0  0  0  0  0  0  0  0  0  0  0  0
   25.8710   10.7460   20.0070 C   0  0  0  0  0  0  0  0  0  0  0  0
   24.8260   10.6610   20.9430 C   0  0  0  0  0  0  0  0  0  0  0  0
   29.8540   10.9130   21.4510 C   0  0  0  0  0  0  0  0  0  0  0  0
   27.8830    9.7800   21.2080 C   0  0  0  0  0  0  0  0  0  0  0  0
   27.3000   10.8010   20.4650 C   0  0  0  0  0  0  0  0  0  0  0  0
   28.0930   11.9190   20.2200 C   0  0  0  0  0  0  0  0  0  0  0  0
   29.3850   11.9780   20.7130 C   0  0  0  0  0  0  0  0  0  0  0  0
    0.0000    0.0000    0.0000 H   0  0  0  0  0  0  0  0  0  0  0  0
    0.0000    0.0000    0.0000 H   0  0  0  0  0  0  0  0  0  0  0  0
    0.0000    0.0000    0.0000 H   0  0  0  0  0  0  0  0  0  0  0  0
    0.0000    0.0000    0.0000 H   0  0  0  0  0  0  0  0  0  0  0  0
    0.0000    0.0000    0.0000 H   0  0  0  0  0  0  0  0  0  0  0  0
    0.0000    0.0000    0.0000 H   0  0  0  0  0  0  0  0  0  0  0  0
    0.0000    0.0000    0.0000 H   0  0  0  0  0  0  0  0  0  0  0  0
    0.0000    0.0000    0.0000 H   0  0  0  0  0  0  0  0  0  0  0  0
    0.0000    0.0000    0.0000 H   0  0  0  0  0  0  0  0  0  0  0  0
    0.0000    0.0000    0.0000 H   0  0  0  0  0  0  0  0  0  0  0  0
    0.0000    0.0000    0.0000 H   0  0  0  0  0  0  0  0  0  0  0  0
    0.0000    0.0000    0.0000 H   0  0  0  0  0  0  0  0  0  0  0  0
    0.0000    0.0000    0.0000 H   0  0  0  0  0  0  0  0  0  0  0  0
   10.7702    5.1433   10.3951 C   0  0  0  0  0  0  0  0  0  0  0  0
    9.8636    5.9086   10.6048 N   0  0  0  0  0  0  0  0  0  0  0  0
    8.6453    6.0098   10.0472 O   0  0  0  0  0  0  0  0  0  0  0  0
   11.1982    4.3810    9.9331 H   0  0  0  0  0  0  0  0  0  0  0  0
    8.0227    5.2378   10.0575 H   0  0  0  0  0  0  0  0  0  0  0  0
  1  3  2  0
  1  4  1  0
  2  4  1  0
  1  5  1  0
  2  6  1  0
  5  6  1  0
  6  7  2  3
  5  8  1  0
  4 10  1  6
 10 11  2  0
 11 12  1  0
 12 13  2  0
 13 14  1  0
 10 15  1  0
 14 15  2  0
  9 16  2  0
  9 17  1  0
 14 18  1  0
 17 18  2  0
 18 19  1  0
 16 20  1  0
 19 20  2  0
  2 21  1  0
  7 22  1  0
  8 23  1  0
  8 24  1  0
  8 25  1  0
 11 26  1  0
 12 27  1  0
 13 28  1  0
 15 29  1  0
 16 30  1  0
 17 31  1  0
 19 32  1  0
 20 33  1  0
 34 35  2  3
 35 36  1  0
 34 37  1  0
 36 38  1  0
  4 34  1  0
M  END
>  <attachment_point>  (227) 
21

>  <score>  (227) 
<NA>

$$$$
4djw
     RDKit          3D

 57 60  0  0  0  0  0  0  0  0999 V2000
   22.4950   11.8750   22.5810 C   0  0  0  0  0  0  0  0  0  0  0  0
   22.5380    9.4930   22.4640 N   0  0  0  0  0  0  0  0  0  0  0  0
   22.3600   13.0630   22.3480 O   0  0  0  0  0  0  0  0  0  0  0  0
   22.3390   10.6680   21.5610 C   0  0  2  0  0  0  0  0  0  0  0  0
   22.7860   11.3350   23.8120 N   0  0  0  0  0  0  0  0  0  0  0  0
   22.7800    9.9140   23.7010 C   0  0  0  0  0  0  0  0  0  0  0  0
   22.9970    9.1110   24.7490 N   0  0  0  0  0  0  0  0  0  0  0  0
   23.0220   12.1410   25.0180 C   0  0  0  0  0  0  0  0  0  0  0  0
   29.1260    9.8230   21.7090 N   0  0  0  0  0  0  0  0  0  0  0  0
   23.4880   10.6920   20.5300 C   0  0  0  0  0  0  0  0  0  0  0  0
   23.2110   10.7890   19.1730 C   0  0  0  0  0  0  0  0  0  0  0  0
   24.2350   10.8650   18.2430 C   0  0  0  0  0  0  0  0  0  0  0  0
   25.5500   10.8410   18.6560 C   0  0  0  0  0  0  0  0  0  0  0  0
   25.8710   10.7460   20.0070 C   0  0  0  0  0  0  0  0  0  0  0  0
   24.8260   10.6610   20.9430 C   0  0  0  0  0  0  0  0  0  0  0  0
   29.8540   10.9130   21.4510 C   0  0  0  0  0  0  0  0  0  0  0  0
   27.8830    9.7800   21.2080 C   0  0  0  0  0  0  0  0  0  0  0  0
   27.3000   10.8010   20.4650 C   0  0  0  0  0  0  0  0  0  0  0  0
   28.0930   11.9190   20.2200 C   0  0  0  0  0  0  0  0  0  0  0  0
   29.3850   11.9780   20.7130 C   0  0  0  0  0  0  0  0  0  0  0  0
    0.0000    0.0000    0.0000 H   0  0  0  0  0  0  0  0  0  0  0  0
    0.0000    0.0000    0.0000 H   0  0  0  0  0  0  0  0  0  0  0  0
    0.0000    0.0000    0.0000 H   0  0  0  0  0  0  0  0  0  0  0  0
    0.0000    0.0000    0.0000 H   0  0  0  0  0  0  0  0  0  0  0  0
    0.0000    0.0000    0.0000 H   0  0  0  0  0  0  0  0  0  0  0  0
    0.0000    0.0000    0.0000 H   0  0  0  0  0  0  0  0  0  0  0  0
    0.0000    0.0000    0.0000 H   0  0  0  0  0  0  0  0  0  0  0  0
    0.0000    0.0000    0.0000 H   0  0  0  0  0  0  0  0  0  0  0  0
    0.0000    0.0000    0.0000 H   0  0  0  0  0  0  0  0  0  0  0  0
    0.0000    0.0000    0.0000 H   0  0  0  0  0  0  0  0  0  0  0  0
    0.0000    0.0000    0.0000 H   0  0  0  0  0  0  0  0  0  0  0  0
    0.0000    0.0000    0.0000 H   0  0  0  0  0  0  0  0  0  0  0  0
    0.0000    0.0000    0.0000 H   0  0  0  0  0  0  0  0  0  0  0  0
   10.8995    5.2050   10.5199 O   0  0  0  0  0  0  0  0  0  0  0  0
   10.2899    6.3197    9.8959 C   0  0  0  0  0  0  0  0  0  0  0  0
    9.2550    5.8476    8.8963 C   0  0  0  0  0  0  0  0  0  0  0  0
    8.1911    5.0381    9.5765 C   0  0  0  0  0  0  0  0  0  0  0  0
    7.4730    5.7436   10.5947 N   0  0  0  0  0  0  0  0  0  0  0  0
    6.4882    4.8324   11.1525 C   0  0  0  0  0  0  0  0  0  0  0  0
    5.6998    5.4521   12.2742 C   0  0  0  0  0  0  0  0  0  0  0  0
    5.0157    6.5700   11.7510 O   0  0  0  0  0  0  0  0  0  0  0  0
    6.0302    7.4624   11.3520 C   0  0  0  0  0  0  0  0  0  0  0  0
    6.7843    6.9135   10.1544 C   0  0  0  0  0  0  0  0  0  0  0  0
   11.0942    6.8189    9.3083 H   0  0  0  0  0  0  0  0  0  0  0  0
    9.8775    6.9390   10.6907 H   0  0  0  0  0  0  0  0  0  0  0  0
    8.8969    6.6504    8.2617 H   0  0  0  0  0  0  0  0  0  0  0  0
    9.8041    5.1297    8.2173 H   0  0  0  0  0  0  0  0  0  0  0  0
    7.4645    4.6771    8.8247 H   0  0  0  0  0  0  0  0  0  0  0  0
    8.6911    4.1732   10.0619 H   0  0  0  0  0  0  0  0  0  0  0  0
    6.9461    3.8874   11.5177 H   0  0  0  0  0  0  0  0  0  0  0  0
    5.7824    4.5975   10.3242 H   0  0  0  0  0  0  0  0  0  0  0  0
    4.9916    4.6992   12.6411 H   0  0  0  0  0  0  0  0  0  0  0  0
    6.3618    5.8197   13.0756 H   0  0  0  0  0  0  0  0  0  0  0  0
    6.7595    7.5387   12.1999 H   0  0  0  0  0  0  0  0  0  0  0  0
    5.6370    8.4709   11.1443 H   0  0  0  0  0  0  0  0  0  0  0  0
    7.4433    7.7306    9.8070 H   0  0  0  0  0  0  0  0  0  0  0  0
    6.0413    6.6028    9.3758 H   0  0  0  0  0  0  0  0  0  0  0  0
  1  3  2  0
  1  4  1  0
  2  4  1  0
  1  5  1  0
  2  6  1  0
  5  6  1  0
  6  7  2  3
  5  8  1  0
  4 10  1  0
 10 11  2  0
 11 12  1  0
 12 13  2  0
 13 14  1  0
 10 15  1  0
 14 15  2  0
  9 16  2  0
  9 17  1  0
 14 18  1  0
 17 18  2  0
 18 19  1  0
 16 20  1  0
 19 20  2  0
  2 21  1  0
  7 22  1  0
  8 23  1  0
  8 24  1  0
  8 25  1  0
 11 26  1  0
 12 27  1  0
 13 28  1  0
 15 29  1  0
 16 30  1  0
 17 31  1  0
 19 32  1  0
 20 33  1  0
 34 35  1  0
 35 36  1  0
 36 37  1  0
 37 38  1  0
 38 39  1  0
 39 40  1  0
 40 41  1  0
 41 42  1  0
 42 43  1  0
 43 38  1  0
 35 44  1  0
 35 45  1  0
 36 46  1  0
 36 47  1  0
 37 48  1  0
 37 49  1  0
 39 50  1  0
 39 51  1  0
 40 52  1  0
 40 53  1  0
 42 54  1  0
 42 55  1  0
 43 56  1  0
 43 57  1  0
  4 34  1  6
M  END
>  <attachment_point>  (228) 
21

>  <score>  (228) 
<NA>

$$$$
4djw
     RDKit          3D

 50 53  0  0  0  0  0  0  0  0999 V2000
   22.4950   11.8750   22.5810 C   0  0  0  0  0  0  0  0  0  0  0  0
   22.5380    9.4930   22.4640 N   0  0  0  0  0  0  0  0  0  0  0  0
   22.3600   13.0630   22.3480 O   0  0  0  0  0  0  0  0  0  0  0  0
   22.3390   10.6680   21.5610 C   0  0  2  0  0  0  0  0  0  0  0  0
   22.7860   11.3350   23.8120 N   0  0  0  0  0  0  0  0  0  0  0  0
   22.7800    9.9140   23.7010 C   0  0  0  0  0  0  0  0  0  0  0  0
   22.9970    9.1110   24.7490 N   0  0  0  0  0  0  0  0  0  0  0  0
   23.0220   12.1410   25.0180 C   0  0  0  0  0  0  0  0  0  0  0  0
   29.1260    9.8230   21.7090 N   0  0  0  0  0  0  0  0  0  0  0  0
   23.4880   10.6920   20.5300 C   0  0  0  0  0  0  0  0  0  0  0  0
   23.2110   10.7890   19.1730 C   0  0  0  0  0  0  0  0  0  0  0  0
   24.2350   10.8650   18.2430 C   0  0  0  0  0  0  0  0  0  0  0  0
   25.5500   10.8410   18.6560 C   0  0  0  0  0  0  0  0  0  0  0  0
   25.8710   10.7460   20.0070 C   0  0  0  0  0  0  0  0  0  0  0  0
   24.8260   10.6610   20.9430 C   0  0  0  0  0  0  0  0  0  0  0  0
   29.8540   10.9130   21.4510 C   0  0  0  0  0  0  0  0  0  0  0  0
   27.8830    9.7800   21.2080 C   0  0  0  0  0  0  0  0  0  0  0  0
   27.3000   10.8010   20.4650 C   0  0  0  0  0  0  0  0  0  0  0  0
   28.0930   11.9190   20.2200 C   0  0  0  0  0  0  0  0  0  0  0  0
   29.3850   11.9780   20.7130 C   0  0  0  0  0  0  0  0  0  0  0  0
    0.0000    0.0000    0.0000 H   0  0  0  0  0  0  0  0  0  0  0  0
    0.0000    0.0000    0.0000 H   0  0  0  0  0  0  0  0  0  0  0  0
    0.0000    0.0000    0.0000 H   0  0  0  0  0  0  0  0  0  0  0  0
    0.0000    0.0000    0.0000 H   0  0  0  0  0  0  0  0  0  0  0  0
    0.0000    0.0000    0.0000 H   0  0  0  0  0  0  0  0  0  0  0  0
    0.0000    0.0000    0.0000 H   0  0  0  0  0  0  0  0  0  0  0  0
    0.0000    0.0000    0.0000 H   0  0  0  0  0  0  0  0  0  0  0  0
    0.0000    0.0000    0.0000 H   0  0  0  0  0  0  0  0  0  0  0  0
    0.0000    0.0000    0.0000 H   0  0  0  0  0  0  0  0  0  0  0  0
    0.0000    0.0000    0.0000 H   0  0  0  0  0  0  0  0  0  0  0  0
    0.0000    0.0000    0.0000 H   0  0  0  0  0  0  0  0  0  0  0  0
    0.0000    0.0000    0.0000 H   0  0  0  0  0  0  0  0  0  0  0  0
    0.0000    0.0000    0.0000 H   0  0  0  0  0  0  0  0  0  0  0  0
   10.8321    5.1729   10.4549 C   0  0  0  0  0  0  0  0  0  0  0  0
   10.8519    5.6751    9.2095 C   0  0  0  0  0  0  0  0  0  0  0  0
    9.8964    5.2189    8.2870 C   0  0  0  0  0  0  0  0  0  0  0  0
    8.9696    4.2765    8.6751 C   0  0  0  0  0  0  0  0  0  0  0  0
    7.9909    3.8356    7.6628 C   0  0  0  0  0  0  0  0  0  0  0  0
    6.7429    4.6266    7.6095 C   0  0  0  0  0  0  0  0  0  0  0  0
    9.0026    3.8034    9.9620 C   0  0  0  0  0  0  0  0  0  0  0  0
    9.9435    4.2482   10.8816 C   0  0  0  0  0  0  0  0  0  0  0  0
   11.5808    6.4118    8.9154 H   0  0  0  0  0  0  0  0  0  0  0  0
    9.9630    5.6585    7.3046 H   0  0  0  0  0  0  0  0  0  0  0  0
    8.4901    3.8617    6.6739 H   0  0  0  0  0  0  0  0  0  0  0  0
    7.7450    2.7638    7.8651 H   0  0  0  0  0  0  0  0  0  0  0  0
    6.9791    5.7146    7.5580 H   0  0  0  0  0  0  0  0  0  0  0  0
    6.0239    4.4428    8.4159 H   0  0  0  0  0  0  0  0  0  0  0  0
    6.2188    4.3928    6.6557 H   0  0  0  0  0  0  0  0  0  0  0  0
    8.2789    3.0736   10.2496 H   0  0  0  0  0  0  0  0  0  0  0  0
    9.9677    3.8784   11.8836 H   0  0  0  0  0  0  0  0  0  0  0  0
  1  3  2  0
  1  4  1  0
  2  4  1  0
  1  5  1  0
  2  6  1  0
  5  6  1  0
  6  7  2  3
  5  8  1  0
  4 10  1  6
 10 11  2  0
 11 12  1  0
 12 13  2  0
 13 14  1  0
 10 15  1  0
 14 15  2  0
  9 16  2  0
  9 17  1  0
 14 18  1  0
 17 18  2  0
 18 19  1  0
 16 20  1  0
 19 20  2  0
  2 21  1  0
  7 22  1  0
  8 23  1  0
  8 24  1  0
  8 25  1  0
 11 26  1  0
 12 27  1  0
 13 28  1  0
 15 29  1  0
 16 30  1  0
 17 31  1  0
 19 32  1  0
 20 33  1  0
 34 35  2  0
 35 36  1  0
 36 37  2  0
 37 38  1  0
 38 39  1  0
 37 40  1  0
 40 41  2  0
 41 34  1  0
 35 42  1  0
 36 43  1  0
 38 44  1  0
 38 45  1  0
 39 46  1  0
 39 47  1  0
 39 48  1  0
 40 49  1  0
 41 50  1  0
  4 34  1  0
M  END
>  <attachment_point>  (229) 
21

>  <score>  (229) 
<NA>

$$$$
4djw
     RDKit          3D

 44 46  0  0  0  0  0  0  0  0999 V2000
   22.4950   11.8750   22.5810 C   0  0  0  0  0  0  0  0  0  0  0  0
   22.5380    9.4930   22.4640 N   0  0  0  0  0  0  0  0  0  0  0  0
   22.3600   13.0630   22.3480 O   0  0  0  0  0  0  0  0  0  0  0  0
   22.3390   10.6680   21.5610 C   0  0  2  0  0  0  0  0  0  0  0  0
   22.7860   11.3350   23.8120 N   0  0  0  0  0  0  0  0  0  0  0  0
   22.7800    9.9140   23.7010 C   0  0  0  0  0  0  0  0  0  0  0  0
   22.9970    9.1110   24.7490 N   0  0  0  0  0  0  0  0  0  0  0  0
   23.0220   12.1410   25.0180 C   0  0  0  0  0  0  0  0  0  0  0  0
   29.1260    9.8230   21.7090 N   0  0  0  0  0  0  0  0  0  0  0  0
   23.4880   10.6920   20.5300 C   0  0  0  0  0  0  0  0  0  0  0  0
   23.2110   10.7890   19.1730 C   0  0  0  0  0  0  0  0  0  0  0  0
   24.2350   10.8650   18.2430 C   0  0  0  0  0  0  0  0  0  0  0  0
   25.5500   10.8410   18.6560 C   0  0  0  0  0  0  0  0  0  0  0  0
   25.8710   10.7460   20.0070 C   0  0  0  0  0  0  0  0  0  0  0  0
   24.8260   10.6610   20.9430 C   0  0  0  0  0  0  0  0  0  0  0  0
   29.8540   10.9130   21.4510 C   0  0  0  0  0  0  0  0  0  0  0  0
   27.8830    9.7800   21.2080 C   0  0  0  0  0  0  0  0  0  0  0  0
   27.3000   10.8010   20.4650 C   0  0  0  0  0  0  0  0  0  0  0  0
   28.0930   11.9190   20.2200 C   0  0  0  0  0  0  0  0  0  0  0  0
   29.3850   11.9780   20.7130 C   0  0  0  0  0  0  0  0  0  0  0  0
    0.0000    0.0000    0.0000 H   0  0  0  0  0  0  0  0  0  0  0  0
    0.0000    0.0000    0.0000 H   0  0  0  0  0  0  0  0  0  0  0  0
    0.0000    0.0000    0.0000 H   0  0  0  0  0  0  0  0  0  0  0  0
    0.0000    0.0000    0.0000 H   0  0  0  0  0  0  0  0  0  0  0  0
    0.0000    0.0000    0.0000 H   0  0  0  0  0  0  0  0  0  0  0  0
    0.0000    0.0000    0.0000 H   0  0  0  0  0  0  0  0  0  0  0  0
    0.0000    0.0000    0.0000 H   0  0  0  0  0  0  0  0  0  0  0  0
    0.0000    0.0000    0.0000 H   0  0  0  0  0  0  0  0  0  0  0  0
    0.0000    0.0000    0.0000 H   0  0  0  0  0  0  0  0  0  0  0  0
    0.0000    0.0000    0.0000 H   0  0  0  0  0  0  0  0  0  0  0  0
    0.0000    0.0000    0.0000 H   0  0  0  0  0  0  0  0  0  0  0  0
    0.0000    0.0000    0.0000 H   0  0  0  0  0  0  0  0  0  0  0  0
    0.0000    0.0000    0.0000 H   0  0  0  0  0  0  0  0  0  0  0  0
   10.8771    5.1944   10.4983 N   0  0  0  0  0  0  0  0  0  0  0  0
    9.5155    5.4196   10.7819 C   0  0  0  0  0  0  0  0  0  0  0  0
    9.1168    6.0138   11.8290 O   0  0  0  0  0  0  0  0  0  0  0  0
    8.5227    4.9444    9.8216 C   0  0  0  0  0  0  0  0  0  0  0  0
    7.1259    5.2770   10.2976 C   0  0  0  0  0  0  0  0  0  0  0  0
   11.1533    4.7094    9.6393 H   0  0  0  0  0  0  0  0  0  0  0  0
    8.6782    5.3050    8.7858 H   0  0  0  0  0  0  0  0  0  0  0  0
    8.6088    3.8189    9.7893 H   0  0  0  0  0  0  0  0  0  0  0  0
    6.6134    5.9377    9.5435 H   0  0  0  0  0  0  0  0  0  0  0  0
    7.1574    5.9099   11.2297 H   0  0  0  0  0  0  0  0  0  0  0  0
    6.5350    4.3701   10.5107 H   0  0  0  0  0  0  0  0  0  0  0  0
  1  3  2  0
  1  4  1  0
  2  4  1  0
  1  5  1  0
  2  6  1  0
  5  6  1  0
  6  7  2  3
  5  8  1  0
  4 10  1  0
 10 11  2  0
 11 12  1  0
 12 13  2  0
 13 14  1  0
 10 15  1  0
 14 15  2  0
  9 16  2  0
  9 17  1  0
 14 18  1  0
 17 18  2  0
 18 19  1  0
 16 20  1  0
 19 20  2  0
  2 21  1  0
  7 22  1  0
  8 23  1  0
  8 24  1  0
  8 25  1  0
 11 26  1  0
 12 27  1  0
 13 28  1  0
 15 29  1  0
 16 30  1  0
 17 31  1  0
 19 32  1  0
 20 33  1  0
 34 35  1  0
 35 36  2  0
 35 37  1  0
 37 38  1  0
 34 39  1  0
 37 40  1  0
 37 41  1  0
 38 42  1  0
 38 43  1  0
 38 44  1  0
  4 34  1  6
M  END
>  <attachment_point>  (230) 
21

>  <score>  (230) 
<NA>

$$$$
4djw
     RDKit          3D

 47 50  0  0  0  0  0  0  0  0999 V2000
   22.4950   11.8750   22.5810 C   0  0  0  0  0  0  0  0  0  0  0  0
   22.5380    9.4930   22.4640 N   0  0  0  0  0  0  0  0  0  0  0  0
   22.3600   13.0630   22.3480 O   0  0  0  0  0  0  0  0  0  0  0  0
   22.3390   10.6680   21.5610 C   0  0  2  0  0  0  0  0  0  0  0  0
   22.7860   11.3350   23.8120 N   0  0  0  0  0  0  0  0  0  0  0  0
   22.7800    9.9140   23.7010 C   0  0  0  0  0  0  0  0  0  0  0  0
   22.9970    9.1110   24.7490 N   0  0  0  0  0  0  0  0  0  0  0  0
   23.0220   12.1410   25.0180 C   0  0  0  0  0  0  0  0  0  0  0  0
   29.1260    9.8230   21.7090 N   0  0  0  0  0  0  0  0  0  0  0  0
   23.4880   10.6920   20.5300 C   0  0  0  0  0  0  0  0  0  0  0  0
   23.2110   10.7890   19.1730 C   0  0  0  0  0  0  0  0  0  0  0  0
   24.2350   10.8650   18.2430 C   0  0  0  0  0  0  0  0  0  0  0  0
   25.5500   10.8410   18.6560 C   0  0  0  0  0  0  0  0  0  0  0  0
   25.8710   10.7460   20.0070 C   0  0  0  0  0  0  0  0  0  0  0  0
   24.8260   10.6610   20.9430 C   0  0  0  0  0  0  0  0  0  0  0  0
   29.8540   10.9130   21.4510 C   0  0  0  0  0  0  0  0  0  0  0  0
   27.8830    9.7800   21.2080 C   0  0  0  0  0  0  0  0  0  0  0  0
   27.3000   10.8010   20.4650 C   0  0  0  0  0  0  0  0  0  0  0  0
   28.0930   11.9190   20.2200 C   0  0  0  0  0  0  0  0  0  0  0  0
   29.3850   11.9780   20.7130 C   0  0  0  0  0  0  0  0  0  0  0  0
    0.0000    0.0000    0.0000 H   0  0  0  0  0  0  0  0  0  0  0  0
    0.0000    0.0000    0.0000 H   0  0  0  0  0  0  0  0  0  0  0  0
    0.0000    0.0000    0.0000 H   0  0  0  0  0  0  0  0  0  0  0  0
    0.0000    0.0000    0.0000 H   0  0  0  0  0  0  0  0  0  0  0  0
    0.0000    0.0000    0.0000 H   0  0  0  0  0  0  0  0  0  0  0  0
    0.0000    0.0000    0.0000 H   0  0  0  0  0  0  0  0  0  0  0  0
    0.0000    0.0000    0.0000 H   0  0  0  0  0  0  0  0  0  0  0  0
    0.0000    0.0000    0.0000 H   0  0  0  0  0  0  0  0  0  0  0  0
    0.0000    0.0000    0.0000 H   0  0  0  0  0  0  0  0  0  0  0  0
    0.0000    0.0000    0.0000 H   0  0  0  0  0  0  0  0  0  0  0  0
    0.0000    0.0000    0.0000 H   0  0  0  0  0  0  0  0  0  0  0  0
    0.0000    0.0000    0.0000 H   0  0  0  0  0  0  0  0  0  0  0  0
    0.0000    0.0000    0.0000 H   0  0  0  0  0  0  0  0  0  0  0  0
   10.8642    5.1882   10.4858 C   0  0  0  0  0  0  0  0  0  0  0  0
    9.5713    5.0360   10.8702 C   0  0  0  0  0  0  0  0  0  0  0  0
    8.6216    4.5864    9.9675 C   0  0  0  0  0  0  0  0  0  0  0  0
    9.0001    4.2927    8.6682 C   0  0  0  0  0  0  0  0  0  0  0  0
   10.3268    4.4633    8.3240 C   0  0  0  0  0  0  0  0  0  0  0  0
   10.7341    4.1700    7.0057 O   0  0  0  0  0  0  0  0  0  0  0  0
   12.0883    4.3365    6.6279 C   0  0  0  0  0  0  0  0  0  0  0  0
   11.2279    4.9019    9.2230 N   0  0  0  0  0  0  0  0  0  0  0  0
    9.3042    5.2769   11.9052 H   0  0  0  0  0  0  0  0  0  0  0  0
    7.5826    4.4612   10.2662 H   0  0  0  0  0  0  0  0  0  0  0  0
    8.2961    3.9375    7.9220 H   0  0  0  0  0  0  0  0  0  0  0  0
   12.7663    3.8784    7.3722 H   0  0  0  0  0  0  0  0  0  0  0  0
   12.3217    5.4213    6.4538 H   0  0  0  0  0  0  0  0  0  0  0  0
   12.2208    3.8063    5.6479 H   0  0  0  0  0  0  0  0  0  0  0  0
  1  3  2  0
  1  4  1  0
  2  4  1  0
  1  5  1  0
  2  6  1  0
  5  6  1  0
  6  7  2  3
  5  8  1  0
  4 10  1  6
 10 11  2  0
 11 12  1  0
 12 13  2  0
 13 14  1  0
 10 15  1  0
 14 15  2  0
  9 16  2  0
  9 17  1  0
 14 18  1  0
 17 18  2  0
 18 19  1  0
 16 20  1  0
 19 20  2  0
  2 21  1  0
  7 22  1  0
  8 23  1  0
  8 24  1  0
  8 25  1  0
 11 26  1  0
 12 27  1  0
 13 28  1  0
 15 29  1  0
 16 30  1  0
 17 31  1  0
 19 32  1  0
 20 33  1  0
 34 35  2  0
 35 36  1  0
 36 37  2  0
 37 38  1  0
 38 39  1  0
 39 40  1  0
 38 41  2  0
 41 34  1  0
 35 42  1  0
 36 43  1  0
 37 44  1  0
 40 45  1  0
 40 46  1  0
 40 47  1  0
  4 34  1  0
M  END
>  <attachment_point>  (231) 
21

>  <score>  (231) 
<NA>

$$$$
4djw
     RDKit          3D

 55 58  0  0  0  0  0  0  0  0999 V2000
   22.4950   11.8750   22.5810 C   0  0  0  0  0  0  0  0  0  0  0  0
   22.5380    9.4930   22.4640 N   0  0  0  0  0  0  0  0  0  0  0  0
   22.3600   13.0630   22.3480 O   0  0  0  0  0  0  0  0  0  0  0  0
   22.3390   10.6680   21.5610 C   0  0  2  0  0  0  0  0  0  0  0  0
   22.7860   11.3350   23.8120 N   0  0  0  0  0  0  0  0  0  0  0  0
   22.7800    9.9140   23.7010 C   0  0  0  0  0  0  0  0  0  0  0  0
   22.9970    9.1110   24.7490 N   0  0  0  0  0  0  0  0  0  0  0  0
   23.0220   12.1410   25.0180 C   0  0  0  0  0  0  0  0  0  0  0  0
   29.1260    9.8230   21.7090 N   0  0  0  0  0  0  0  0  0  0  0  0
   23.4880   10.6920   20.5300 C   0  0  0  0  0  0  0  0  0  0  0  0
   23.2110   10.7890   19.1730 C   0  0  0  0  0  0  0  0  0  0  0  0
   24.2350   10.8650   18.2430 C   0  0  0  0  0  0  0  0  0  0  0  0
   25.5500   10.8410   18.6560 C   0  0  0  0  0  0  0  0  0  0  0  0
   25.8710   10.7460   20.0070 C   0  0  0  0  0  0  0  0  0  0  0  0
   24.8260   10.6610   20.9430 C   0  0  0  0  0  0  0  0  0  0  0  0
   29.8540   10.9130   21.4510 C   0  0  0  0  0  0  0  0  0  0  0  0
   27.8830    9.7800   21.2080 C   0  0  0  0  0  0  0  0  0  0  0  0
   27.3000   10.8010   20.4650 C   0  0  0  0  0  0  0  0  0  0  0  0
   28.0930   11.9190   20.2200 C   0  0  0  0  0  0  0  0  0  0  0  0
   29.3850   11.9780   20.7130 C   0  0  0  0  0  0  0  0  0  0  0  0
    0.0000    0.0000    0.0000 H   0  0  0  0  0  0  0  0  0  0  0  0
    0.0000    0.0000    0.0000 H   0  0  0  0  0  0  0  0  0  0  0  0
    0.0000    0.0000    0.0000 H   0  0  0  0  0  0  0  0  0  0  0  0
    0.0000    0.0000    0.0000 H   0  0  0  0  0  0  0  0  0  0  0  0
    0.0000    0.0000    0.0000 H   0  0  0  0  0  0  0  0  0  0  0  0
    0.0000    0.0000    0.0000 H   0  0  0  0  0  0  0  0  0  0  0  0
    0.0000    0.0000    0.0000 H   0  0  0  0  0  0  0  0  0  0  0  0
    0.0000    0.0000    0.0000 H   0  0  0  0  0  0  0  0  0  0  0  0
    0.0000    0.0000    0.0000 H   0  0  0  0  0  0  0  0  0  0  0  0
    0.0000    0.0000    0.0000 H   0  0  0  0  0  0  0  0  0  0  0  0
    0.0000    0.0000    0.0000 H   0  0  0  0  0  0  0  0  0  0  0  0
    0.0000    0.0000    0.0000 H   0  0  0  0  0  0  0  0  0  0  0  0
    0.0000    0.0000    0.0000 H   0  0  0  0  0  0  0  0  0  0  0  0
   10.9082    5.2092   10.5283 N   0  0  0  0  0  0  0  0  0  0  0  0
   10.1254    4.1693   11.1940 C   0  0  0  0  0  0  0  0  0  0  0  0
    9.5297    4.8198   12.4104 C   0  0  0  0  0  0  0  0  0  0  0  0
    8.4850    5.7484   11.9779 N   0  0  0  0  0  0  0  0  0  0  0  0
    8.0131    6.3645   13.2147 C   0  0  0  0  0  0  0  0  0  0  0  0
    6.7436    7.1400   13.0260 C   0  0  0  0  0  0  0  0  0  0  0  0
    6.4655    7.7880   14.2263 O   0  0  0  0  0  0  0  0  0  0  0  0
    9.0999    6.7661   11.1310 C   0  0  0  0  0  0  0  0  0  0  0  0
    9.9619    6.1886   10.0515 C   0  0  0  0  0  0  0  0  0  0  0  0
    9.3076    3.7984   10.5475 H   0  0  0  0  0  0  0  0  0  0  0  0
   10.8451    3.3819   11.4661 H   0  0  0  0  0  0  0  0  0  0  0  0
    9.1296    4.1027   13.1432 H   0  0  0  0  0  0  0  0  0  0  0  0
   10.3315    5.4646   12.8458 H   0  0  0  0  0  0  0  0  0  0  0  0
    7.7892    5.4979   13.8923 H   0  0  0  0  0  0  0  0  0  0  0  0
    8.7970    6.9499   13.7277 H   0  0  0  0  0  0  0  0  0  0  0  0
    5.8975    6.4521   12.8242 H   0  0  0  0  0  0  0  0  0  0  0  0
    6.8863    7.9098   12.2564 H   0  0  0  0  0  0  0  0  0  0  0  0
    7.2662    7.8483   14.7928 H   0  0  0  0  0  0  0  0  0  0  0  0
    9.7195    7.4354   11.7515 H   0  0  0  0  0  0  0  0  0  0  0  0
    8.3104    7.3609   10.6395 H   0  0  0  0  0  0  0  0  0  0  0  0
   10.5584    7.0156    9.6106 H   0  0  0  0  0  0  0  0  0  0  0  0
    9.3902    5.7352    9.2178 H   0  0  0  0  0  0  0  0  0  0  0  0
  1  3  2  0
  1  4  1  0
  2  4  1  0
  1  5  1  0
  2  6  1  0
  5  6  1  0
  6  7  2  3
  5  8  1  0
  4 10  1  0
 10 11  2  0
 11 12  1  0
 12 13  2  0
 13 14  1  0
 10 15  1  0
 14 15  2  0
  9 16  2  0
  9 17  1  0
 14 18  1  0
 17 18  2  0
 18 19  1  0
 16 20  1  0
 19 20  2  0
  2 21  1  0
  7 22  1  0
  8 23  1  0
  8 24  1  0
  8 25  1  0
 11 26  1  0
 12 27  1  0
 13 28  1  0
 15 29  1  0
 16 30  1  0
 17 31  1  0
 19 32  1  0
 20 33  1  0
 34 35  1  0
 35 36  1  0
 36 37  1  0
 37 38  1  0
 38 39  1  0
 39 40  1  0
 37 41  1  0
 41 42  1  0
 42 34  1  0
 35 43  1  0
 35 44  1  0
 36 45  1  0
 36 46  1  0
 38 47  1  0
 38 48  1  0
 39 49  1  0
 39 50  1  0
 40 51  1  0
 41 52  1  0
 41 53  1  0
 42 54  1  0
 42 55  1  0
  4 34  1  6
M  END
>  <attachment_point>  (232) 
21

>  <score>  (232) 
<NA>

$$$$
4djw
     RDKit          3D

 48 51  0  0  0  0  0  0  0  0999 V2000
   22.4950   11.8750   22.5810 C   0  0  0  0  0  0  0  0  0  0  0  0
   22.5380    9.4930   22.4640 N   0  0  0  0  0  0  0  0  0  0  0  0
   22.3600   13.0630   22.3480 O   0  0  0  0  0  0  0  0  0  0  0  0
   22.3390   10.6680   21.5610 C   0  0  2  0  0  0  0  0  0  0  0  0
   22.7860   11.3350   23.8120 N   0  0  0  0  0  0  0  0  0  0  0  0
   22.7800    9.9140   23.7010 C   0  0  0  0  0  0  0  0  0  0  0  0
   22.9970    9.1110   24.7490 N   0  0  0  0  0  0  0  0  0  0  0  0
   23.0220   12.1410   25.0180 C   0  0  0  0  0  0  0  0  0  0  0  0
   29.1260    9.8230   21.7090 N   0  0  0  0  0  0  0  0  0  0  0  0
   23.4880   10.6920   20.5300 C   0  0  0  0  0  0  0  0  0  0  0  0
   23.2110   10.7890   19.1730 C   0  0  0  0  0  0  0  0  0  0  0  0
   24.2350   10.8650   18.2430 C   0  0  0  0  0  0  0  0  0  0  0  0
   25.5500   10.8410   18.6560 C   0  0  0  0  0  0  0  0  0  0  0  0
   25.8710   10.7460   20.0070 C   0  0  0  0  0  0  0  0  0  0  0  0
   24.8260   10.6610   20.9430 C   0  0  0  0  0  0  0  0  0  0  0  0
   29.8540   10.9130   21.4510 C   0  0  0  0  0  0  0  0  0  0  0  0
   27.8830    9.7800   21.2080 C   0  0  0  0  0  0  0  0  0  0  0  0
   27.3000   10.8010   20.4650 C   0  0  0  0  0  0  0  0  0  0  0  0
   28.0930   11.9190   20.2200 C   0  0  0  0  0  0  0  0  0  0  0  0
   29.3850   11.9780   20.7130 C   0  0  0  0  0  0  0  0  0  0  0  0
    0.0000    0.0000    0.0000 H   0  0  0  0  0  0  0  0  0  0  0  0
    0.0000    0.0000    0.0000 H   0  0  0  0  0  0  0  0  0  0  0  0
    0.0000    0.0000    0.0000 H   0  0  0  0  0  0  0  0  0  0  0  0
    0.0000    0.0000    0.0000 H   0  0  0  0  0  0  0  0  0  0  0  0
    0.0000    0.0000    0.0000 H   0  0  0  0  0  0  0  0  0  0  0  0
    0.0000    0.0000    0.0000 H   0  0  0  0  0  0  0  0  0  0  0  0
    0.0000    0.0000    0.0000 H   0  0  0  0  0  0  0  0  0  0  0  0
    0.0000    0.0000    0.0000 H   0  0  0  0  0  0  0  0  0  0  0  0
    0.0000    0.0000    0.0000 H   0  0  0  0  0  0  0  0  0  0  0  0
    0.0000    0.0000    0.0000 H   0  0  0  0  0  0  0  0  0  0  0  0
    0.0000    0.0000    0.0000 H   0  0  0  0  0  0  0  0  0  0  0  0
    0.0000    0.0000    0.0000 H   0  0  0  0  0  0  0  0  0  0  0  0
    0.0000    0.0000    0.0000 H   0  0  0  0  0  0  0  0  0  0  0  0
   10.8293    5.1715   10.4521 N   0  0  0  0  0  0  0  0  0  0  0  0
    9.6662    5.8195   11.0249 C   0  0  0  0  0  0  0  0  0  0  0  0
    9.4012    5.3970   12.4066 C   0  0  0  0  0  0  0  0  0  0  0  0
    8.5827    4.3104   12.6499 C   0  0  0  0  0  0  0  0  0  0  0  0
    8.3698    3.9601   13.9596 C   0  0  0  0  0  0  0  0  0  0  0  0
    8.9376    4.6474   15.0149 C   0  0  0  0  0  0  0  0  0  0  0  0
    9.7309    5.7017   14.7547 N   0  0  0  0  0  0  0  0  0  0  0  0
    9.9639    6.0764   13.4824 C   0  0  0  0  0  0  0  0  0  0  0  0
   11.2486    5.7418    9.6804 H   0  0  0  0  0  0  0  0  0  0  0  0
    9.8134    6.9266   10.9548 H   0  0  0  0  0  0  0  0  0  0  0  0
    8.8166    5.5501   10.4047 H   0  0  0  0  0  0  0  0  0  0  0  0
    8.1360    3.7705   11.8070 H   0  0  0  0  0  0  0  0  0  0  0  0
    7.7388    3.1215   14.1655 H   0  0  0  0  0  0  0  0  0  0  0  0
    8.7575    4.3554   16.0397 H   0  0  0  0  0  0  0  0  0  0  0  0
   10.6102    6.9362   13.2534 H   0  0  0  0  0  0  0  0  0  0  0  0
  1  3  2  0
  1  4  1  0
  2  4  1  0
  1  5  1  0
  2  6  1  0
  5  6  1  0
  6  7  2  3
  5  8  1  0
  4 10  1  0
 10 11  2  0
 11 12  1  0
 12 13  2  0
 13 14  1  0
 10 15  1  0
 14 15  2  0
  9 16  2  0
  9 17  1  0
 14 18  1  0
 17 18  2  0
 18 19  1  0
 16 20  1  0
 19 20  2  0
  2 21  1  0
  7 22  1  0
  8 23  1  0
  8 24  1  0
  8 25  1  0
 11 26  1  0
 12 27  1  0
 13 28  1  0
 15 29  1  0
 16 30  1  0
 17 31  1  0
 19 32  1  0
 20 33  1  0
 34 35  1  0
 35 36  1  0
 36 37  2  0
 37 38  1  0
 38 39  2  0
 39 40  1  0
 40 41  2  0
 41 36  1  0
 34 42  1  0
 35 43  1  0
 35 44  1  0
 37 45  1  0
 38 46  1  0
 39 47  1  0
 41 48  1  0
  4 34  1  6
M  END
>  <attachment_point>  (233) 
21

>  <score>  (233) 
<NA>

$$$$
4djw
     RDKit          3D

 43 45  0  0  0  0  0  0  0  0999 V2000
   22.4950   11.8750   22.5810 C   0  0  0  0  0  0  0  0  0  0  0  0
   22.5380    9.4930   22.4640 N   0  0  0  0  0  0  0  0  0  0  0  0
   22.3600   13.0630   22.3480 O   0  0  0  0  0  0  0  0  0  0  0  0
   22.3390   10.6680   21.5610 C   0  0  2  0  0  0  0  0  0  0  0  0
   22.7860   11.3350   23.8120 N   0  0  0  0  0  0  0  0  0  0  0  0
   22.7800    9.9140   23.7010 C   0  0  0  0  0  0  0  0  0  0  0  0
   22.9970    9.1110   24.7490 N   0  0  0  0  0  0  0  0  0  0  0  0
   23.0220   12.1410   25.0180 C   0  0  0  0  0  0  0  0  0  0  0  0
   29.1260    9.8230   21.7090 N   0  0  0  0  0  0  0  0  0  0  0  0
   23.4880   10.6920   20.5300 C   0  0  0  0  0  0  0  0  0  0  0  0
   23.2110   10.7890   19.1730 C   0  0  0  0  0  0  0  0  0  0  0  0
   24.2350   10.8650   18.2430 C   0  0  0  0  0  0  0  0  0  0  0  0
   25.5500   10.8410   18.6560 C   0  0  0  0  0  0  0  0  0  0  0  0
   25.8710   10.7460   20.0070 C   0  0  0  0  0  0  0  0  0  0  0  0
   24.8260   10.6610   20.9430 C   0  0  0  0  0  0  0  0  0  0  0  0
   29.8540   10.9130   21.4510 C   0  0  0  0  0  0  0  0  0  0  0  0
   27.8830    9.7800   21.2080 C   0  0  0  0  0  0  0  0  0  0  0  0
   27.3000   10.8010   20.4650 C   0  0  0  0  0  0  0  0  0  0  0  0
   28.0930   11.9190   20.2200 C   0  0  0  0  0  0  0  0  0  0  0  0
   29.3850   11.9780   20.7130 C   0  0  0  0  0  0  0  0  0  0  0  0
    0.0000    0.0000    0.0000 H   0  0  0  0  0  0  0  0  0  0  0  0
    0.0000    0.0000    0.0000 H   0  0  0  0  0  0  0  0  0  0  0  0
    0.0000    0.0000    0.0000 H   0  0  0  0  0  0  0  0  0  0  0  0
    0.0000    0.0000    0.0000 H   0  0  0  0  0  0  0  0  0  0  0  0
    0.0000    0.0000    0.0000 H   0  0  0  0  0  0  0  0  0  0  0  0
    0.0000    0.0000    0.0000 H   0  0  0  0  0  0  0  0  0  0  0  0
    0.0000    0.0000    0.0000 H   0  0  0  0  0  0  0  0  0  0  0  0
    0.0000    0.0000    0.0000 H   0  0  0  0  0  0  0  0  0  0  0  0
    0.0000    0.0000    0.0000 H   0  0  0  0  0  0  0  0  0  0  0  0
    0.0000    0.0000    0.0000 H   0  0  0  0  0  0  0  0  0  0  0  0
    0.0000    0.0000    0.0000 H   0  0  0  0  0  0  0  0  0  0  0  0
    0.0000    0.0000    0.0000 H   0  0  0  0  0  0  0  0  0  0  0  0
    0.0000    0.0000    0.0000 H   0  0  0  0  0  0  0  0  0  0  0  0
   10.8216    5.1679   10.4447 C   0  0  0  0  0  0  0  0  0  0  0  0
    9.6571    5.7116   10.5532 C   0  0  0  0  0  0  0  0  0  0  0  0
    8.5562    5.3544    9.6795 C   0  0  0  0  0  0  0  0  0  0  0  0
    8.7587    4.4865    8.7940 O   0  0  0  0  0  0  0  0  0  0  0  0
    7.2642    5.9422    9.7823 N   0  0  0  0  0  0  0  0  0  0  0  0
    6.3050    5.5525    8.9332 O   0  0  0  0  0  0  0  0  0  0  0  0
   11.1508    4.4442    9.7755 H   0  0  0  0  0  0  0  0  0  0  0  0
    9.4461    6.4756   11.3185 H   0  0  0  0  0  0  0  0  0  0  0  0
    7.1109    6.6515   10.5112 H   0  0  0  0  0  0  0  0  0  0  0  0
    6.4625    4.6067    8.7015 H   0  0  0  0  0  0  0  0  0  0  0  0
  1  3  2  0
  1  4  1  0
  2  4  1  0
  1  5  1  0
  2  6  1  0
  5  6  1  0
  6  7  2  3
  5  8  1  0
  4 10  1  6
 10 11  2  0
 11 12  1  0
 12 13  2  0
 13 14  1  0
 10 15  1  0
 14 15  2  0
  9 16  2  0
  9 17  1  0
 14 18  1  0
 17 18  2  0
 18 19  1  0
 16 20  1  0
 19 20  2  0
  2 21  1  0
  7 22  1  0
  8 23  1  0
  8 24  1  0
  8 25  1  0
 11 26  1  0
 12 27  1  0
 13 28  1  0
 15 29  1  0
 16 30  1  0
 17 31  1  0
 19 32  1  0
 20 33  1  0
 34 35  2  3
 35 36  1  0
 36 37  2  0
 36 38  1  0
 38 39  1  0
 34 40  1  0
 35 41  1  0
 38 42  1  0
 39 43  1  0
  4 34  1  0
M  END
>  <attachment_point>  (234) 
21

>  <score>  (234) 
<NA>

$$$$
4djw
     RDKit          3D

 48 50  0  0  0  0  0  0  0  0999 V2000
   22.4950   11.8750   22.5810 C   0  0  0  0  0  0  0  0  0  0  0  0
   22.5380    9.4930   22.4640 N   0  0  0  0  0  0  0  0  0  0  0  0
   22.3600   13.0630   22.3480 O   0  0  0  0  0  0  0  0  0  0  0  0
   22.3390   10.6680   21.5610 C   0  0  2  0  0  0  0  0  0  0  0  0
   22.7860   11.3350   23.8120 N   0  0  0  0  0  0  0  0  0  0  0  0
   22.7800    9.9140   23.7010 C   0  0  0  0  0  0  0  0  0  0  0  0
   22.9970    9.1110   24.7490 N   0  0  0  0  0  0  0  0  0  0  0  0
   23.0220   12.1410   25.0180 C   0  0  0  0  0  0  0  0  0  0  0  0
   29.1260    9.8230   21.7090 N   0  0  0  0  0  0  0  0  0  0  0  0
   23.4880   10.6920   20.5300 C   0  0  0  0  0  0  0  0  0  0  0  0
   23.2110   10.7890   19.1730 C   0  0  0  0  0  0  0  0  0  0  0  0
   24.2350   10.8650   18.2430 C   0  0  0  0  0  0  0  0  0  0  0  0
   25.5500   10.8410   18.6560 C   0  0  0  0  0  0  0  0  0  0  0  0
   25.8710   10.7460   20.0070 C   0  0  0  0  0  0  0  0  0  0  0  0
   24.8260   10.6610   20.9430 C   0  0  0  0  0  0  0  0  0  0  0  0
   29.8540   10.9130   21.4510 C   0  0  0  0  0  0  0  0  0  0  0  0
   27.8830    9.7800   21.2080 C   0  0  0  0  0  0  0  0  0  0  0  0
   27.3000   10.8010   20.4650 C   0  0  0  0  0  0  0  0  0  0  0  0
   28.0930   11.9190   20.2200 C   0  0  0  0  0  0  0  0  0  0  0  0
   29.3850   11.9780   20.7130 C   0  0  0  0  0  0  0  0  0  0  0  0
    0.0000    0.0000    0.0000 H   0  0  0  0  0  0  0  0  0  0  0  0
    0.0000    0.0000    0.0000 H   0  0  0  0  0  0  0  0  0  0  0  0
    0.0000    0.0000    0.0000 H   0  0  0  0  0  0  0  0  0  0  0  0
    0.0000    0.0000    0.0000 H   0  0  0  0  0  0  0  0  0  0  0  0
    0.0000    0.0000    0.0000 H   0  0  0  0  0  0  0  0  0  0  0  0
    0.0000    0.0000    0.0000 H   0  0  0  0  0  0  0  0  0  0  0  0
    0.0000    0.0000    0.0000 H   0  0  0  0  0  0  0  0  0  0  0  0
    0.0000    0.0000    0.0000 H   0  0  0  0  0  0  0  0  0  0  0  0
    0.0000    0.0000    0.0000 H   0  0  0  0  0  0  0  0  0  0  0  0
    0.0000    0.0000    0.0000 H   0  0  0  0  0  0  0  0  0  0  0  0
    0.0000    0.0000    0.0000 H   0  0  0  0  0  0  0  0  0  0  0  0
    0.0000    0.0000    0.0000 H   0  0  0  0  0  0  0  0  0  0  0  0
    0.0000    0.0000    0.0000 H   0  0  0  0  0  0  0  0  0  0  0  0
   10.8788    5.1952   10.4999 C   0  0  0  0  0  0  0  0  0  0  0  0
    9.8808    4.5078   10.8357 O   0  0  0  0  0  0  0  0  0  0  0  0
   11.0127    5.5044    9.1184 N   0  0  0  0  0  0  0  0  0  0  0  0
   10.0125    5.0215    8.1854 C   0  0  0  0  0  0  0  0  0  0  0  0
   10.3676    5.4750    6.7789 C   0  0  0  0  0  0  0  0  0  0  0  0
   11.6008    4.9610    6.4490 O   0  0  0  0  0  0  0  0  0  0  0  0
   12.0296    5.3069    5.1905 C   0  0  0  0  0  0  0  0  0  0  0  0
   11.8223    6.0769    8.7542 H   0  0  0  0  0  0  0  0  0  0  0  0
    9.8697    3.9390    8.2352 H   0  0  0  0  0  0  0  0  0  0  0  0
    9.0274    5.5060    8.4141 H   0  0  0  0  0  0  0  0  0  0  0  0
    9.5721    5.2577    6.0600 H   0  0  0  0  0  0  0  0  0  0  0  0
   10.4767    6.5910    6.7958 H   0  0  0  0  0  0  0  0  0  0  0  0
   11.3481    4.9615    4.3861 H   0  0  0  0  0  0  0  0  0  0  0  0
   13.0372    4.8594    5.0349 H   0  0  0  0  0  0  0  0  0  0  0  0
   12.1565    6.4094    5.0519 H   0  0  0  0  0  0  0  0  0  0  0  0
  1  3  2  0
  1  4  1  0
  2  4  1  0
  1  5  1  0
  2  6  1  0
  5  6  1  0
  6  7  2  3
  5  8  1  0
  4 10  1  0
 10 11  2  0
 11 12  1  0
 12 13  2  0
 13 14  1  0
 10 15  1  0
 14 15  2  0
  9 16  2  0
  9 17  1  0
 14 18  1  0
 17 18  2  0
 18 19  1  0
 16 20  1  0
 19 20  2  0
  2 21  1  0
  7 22  1  0
  8 23  1  0
  8 24  1  0
  8 25  1  0
 11 26  1  0
 12 27  1  0
 13 28  1  0
 15 29  1  0
 16 30  1  0
 17 31  1  0
 19 32  1  0
 20 33  1  0
 34 35  2  0
 34 36  1  0
 36 37  1  0
 37 38  1  0
 38 39  1  0
 39 40  1  0
 36 41  1  0
 37 42  1  0
 37 43  1  0
 38 44  1  0
 38 45  1  0
 40 46  1  0
 40 47  1  0
 40 48  1  0
  4 34  1  6
M  END
>  <attachment_point>  (235) 
21

>  <score>  (235) 
<NA>

$$$$
4djw
     RDKit          3D

 42 45  0  0  0  0  0  0  0  0999 V2000
   22.4950   11.8750   22.5810 C   0  0  0  0  0  0  0  0  0  0  0  0
   22.5380    9.4930   22.4640 N   0  0  0  0  0  0  0  0  0  0  0  0
   22.3600   13.0630   22.3480 O   0  0  0  0  0  0  0  0  0  0  0  0
   22.3390   10.6680   21.5610 C   0  0  2  0  0  0  0  0  0  0  0  0
   22.7860   11.3350   23.8120 N   0  0  0  0  0  0  0  0  0  0  0  0
   22.7800    9.9140   23.7010 C   0  0  0  0  0  0  0  0  0  0  0  0
   22.9970    9.1110   24.7490 N   0  0  0  0  0  0  0  0  0  0  0  0
   23.0220   12.1410   25.0180 C   0  0  0  0  0  0  0  0  0  0  0  0
   29.1260    9.8230   21.7090 N   0  0  0  0  0  0  0  0  0  0  0  0
   23.4880   10.6920   20.5300 C   0  0  0  0  0  0  0  0  0  0  0  0
   23.2110   10.7890   19.1730 C   0  0  0  0  0  0  0  0  0  0  0  0
   24.2350   10.8650   18.2430 C   0  0  0  0  0  0  0  0  0  0  0  0
   25.5500   10.8410   18.6560 C   0  0  0  0  0  0  0  0  0  0  0  0
   25.8710   10.7460   20.0070 C   0  0  0  0  0  0  0  0  0  0  0  0
   24.8260   10.6610   20.9430 C   0  0  0  0  0  0  0  0  0  0  0  0
   29.8540   10.9130   21.4510 C   0  0  0  0  0  0  0  0  0  0  0  0
   27.8830    9.7800   21.2080 C   0  0  0  0  0  0  0  0  0  0  0  0
   27.3000   10.8010   20.4650 C   0  0  0  0  0  0  0  0  0  0  0  0
   28.0930   11.9190   20.2200 C   0  0  0  0  0  0  0  0  0  0  0  0
   29.3850   11.9780   20.7130 C   0  0  0  0  0  0  0  0  0  0  0  0
    0.0000    0.0000    0.0000 H   0  0  0  0  0  0  0  0  0  0  0  0
    0.0000    0.0000    0.0000 H   0  0  0  0  0  0  0  0  0  0  0  0
    0.0000    0.0000    0.0000 H   0  0  0  0  0  0  0  0  0  0  0  0
    0.0000    0.0000    0.0000 H   0  0  0  0  0  0  0  0  0  0  0  0
    0.0000    0.0000    0.0000 H   0  0  0  0  0  0  0  0  0  0  0  0
    0.0000    0.0000    0.0000 H   0  0  0  0  0  0  0  0  0  0  0  0
    0.0000    0.0000    0.0000 H   0  0  0  0  0  0  0  0  0  0  0  0
    0.0000    0.0000    0.0000 H   0  0  0  0  0  0  0  0  0  0  0  0
    0.0000    0.0000    0.0000 H   0  0  0  0  0  0  0  0  0  0  0  0
    0.0000    0.0000    0.0000 H   0  0  0  0  0  0  0  0  0  0  0  0
    0.0000    0.0000    0.0000 H   0  0  0  0  0  0  0  0  0  0  0  0
    0.0000    0.0000    0.0000 H   0  0  0  0  0  0  0  0  0  0  0  0
    0.0000    0.0000    0.0000 H   0  0  0  0  0  0  0  0  0  0  0  0
   10.8713    5.1916   10.4927 C   0  0  0  0  0  0  0  0  0  0  0  0
   11.2594    4.6274    9.2995 C   0  0  0  0  0  0  0  0  0  0  0  0
   10.2867    4.1952    8.4287 C   0  0  0  0  0  0  0  0  0  0  0  0
    8.9601    4.3218    8.7386 N   0  0  0  0  0  0  0  0  0  0  0  0
    8.6095    4.8747    9.9067 C   0  0  0  0  0  0  0  0  0  0  0  0
    9.5460    5.2958   10.7557 N   0  0  0  0  0  0  0  0  0  0  0  0
   12.3149    4.5262    9.0521 H   0  0  0  0  0  0  0  0  0  0  0  0
   10.5649    3.7506    7.4894 H   0  0  0  0  0  0  0  0  0  0  0  0
    7.5742    4.9752   10.1520 H   0  0  0  0  0  0  0  0  0  0  0  0
  1  3  2  0
  1  4  1  0
  2  4  1  0
  1  5  1  0
  2  6  1  0
  5  6  1  0
  6  7  2  3
  5  8  1  0
  4 10  1  6
 10 11  2  0
 11 12  1  0
 12 13  2  0
 13 14  1  0
 10 15  1  0
 14 15  2  0
  9 16  2  0
  9 17  1  0
 14 18  1  0
 17 18  2  0
 18 19  1  0
 16 20  1  0
 19 20  2  0
  2 21  1  0
  7 22  1  0
  8 23  1  0
  8 24  1  0
  8 25  1  0
 11 26  1  0
 12 27  1  0
 13 28  1  0
 15 29  1  0
 16 30  1  0
 17 31  1  0
 19 32  1  0
 20 33  1  0
 34 35  2  0
 35 36  1  0
 36 37  2  0
 37 38  1  0
 38 39  2  0
 39 34  1  0
 35 40  1  0
 36 41  1  0
 38 42  1  0
  4 34  1  0
M  END
>  <attachment_point>  (236) 
21

>  <score>  (236) 
<NA>

$$$$
4djw
     RDKit          3D

 44 47  0  0  0  0  0  0  0  0999 V2000
   22.4950   11.8750   22.5810 C   0  0  0  0  0  0  0  0  0  0  0  0
   22.5380    9.4930   22.4640 N   0  0  0  0  0  0  0  0  0  0  0  0
   22.3600   13.0630   22.3480 O   0  0  0  0  0  0  0  0  0  0  0  0
   22.3390   10.6680   21.5610 C   0  0  2  0  0  0  0  0  0  0  0  0
   22.7860   11.3350   23.8120 N   0  0  0  0  0  0  0  0  0  0  0  0
   22.7800    9.9140   23.7010 C   0  0  0  0  0  0  0  0  0  0  0  0
   22.9970    9.1110   24.7490 N   0  0  0  0  0  0  0  0  0  0  0  0
   23.0220   12.1410   25.0180 C   0  0  0  0  0  0  0  0  0  0  0  0
   29.1260    9.8230   21.7090 N   0  0  0  0  0  0  0  0  0  0  0  0
   23.4880   10.6920   20.5300 C   0  0  0  0  0  0  0  0  0  0  0  0
   23.2110   10.7890   19.1730 C   0  0  0  0  0  0  0  0  0  0  0  0
   24.2350   10.8650   18.2430 C   0  0  0  0  0  0  0  0  0  0  0  0
   25.5500   10.8410   18.6560 C   0  0  0  0  0  0  0  0  0  0  0  0
   25.8710   10.7460   20.0070 C   0  0  0  0  0  0  0  0  0  0  0  0
   24.8260   10.6610   20.9430 C   0  0  0  0  0  0  0  0  0  0  0  0
   29.8540   10.9130   21.4510 C   0  0  0  0  0  0  0  0  0  0  0  0
   27.8830    9.7800   21.2080 C   0  0  0  0  0  0  0  0  0  0  0  0
   27.3000   10.8010   20.4650 C   0  0  0  0  0  0  0  0  0  0  0  0
   28.0930   11.9190   20.2200 C   0  0  0  0  0  0  0  0  0  0  0  0
   29.3850   11.9780   20.7130 C   0  0  0  0  0  0  0  0  0  0  0  0
    0.0000    0.0000    0.0000 H   0  0  0  0  0  0  0  0  0  0  0  0
    0.0000    0.0000    0.0000 H   0  0  0  0  0  0  0  0  0  0  0  0
    0.0000    0.0000    0.0000 H   0  0  0  0  0  0  0  0  0  0  0  0
    0.0000    0.0000    0.0000 H   0  0  0  0  0  0  0  0  0  0  0  0
    0.0000    0.0000    0.0000 H   0  0  0  0  0  0  0  0  0  0  0  0
    0.0000    0.0000    0.0000 H   0  0  0  0  0  0  0  0  0  0  0  0
    0.0000    0.0000    0.0000 H   0  0  0  0  0  0  0  0  0  0  0  0
    0.0000    0.0000    0.0000 H   0  0  0  0  0  0  0  0  0  0  0  0
    0.0000    0.0000    0.0000 H   0  0  0  0  0  0  0  0  0  0  0  0
    0.0000    0.0000    0.0000 H   0  0  0  0  0  0  0  0  0  0  0  0
    0.0000    0.0000    0.0000 H   0  0  0  0  0  0  0  0  0  0  0  0
    0.0000    0.0000    0.0000 H   0  0  0  0  0  0  0  0  0  0  0  0
    0.0000    0.0000    0.0000 H   0  0  0  0  0  0  0  0  0  0  0  0
   10.8893    5.2002   10.5101 C   0  0  0  0  0  0  0  0  0  0  0  0
   11.4689    4.1102    9.6418 C   0  0  0  0  0  0  0  0  0  0  0  0
   11.4666    2.7730    9.8554 C   0  0  0  0  0  0  0  0  0  0  0  0
   12.0423    1.9814    8.9473 C   0  0  0  0  0  0  0  0  0  0  0  0
   12.5994    2.5880    7.8531 C   0  0  0  0  0  0  0  0  0  0  0  0
   12.2958    4.2396    8.1387 S   0  0  0  0  0  0  0  0  0  0  0  0
   10.5978    6.0396    9.8121 H   0  0  0  0  0  0  0  0  0  0  0  0
    9.9752    4.7882   10.9862 H   0  0  0  0  0  0  0  0  0  0  0  0
   10.9883    2.3765   10.7751 H   0  0  0  0  0  0  0  0  0  0  0  0
   12.0977    0.8764    9.0212 H   0  0  0  0  0  0  0  0  0  0  0  0
   13.1176    2.1382    6.9945 H   0  0  0  0  0  0  0  0  0  0  0  0
  1  3  2  0
  1  4  1  0
  2  4  1  0
  1  5  1  0
  2  6  1  0
  5  6  1  0
  6  7  2  3
  5  8  1  0
  4 10  1  0
 10 11  2  0
 11 12  1  0
 12 13  2  0
 13 14  1  0
 10 15  1  0
 14 15  2  0
  9 16  2  0
  9 17  1  0
 14 18  1  0
 17 18  2  0
 18 19  1  0
 16 20  1  0
 19 20  2  0
  2 21  1  0
  7 22  1  0
  8 23  1  0
  8 24  1  0
  8 25  1  0
 11 26  1  0
 12 27  1  0
 13 28  1  0
 15 29  1  0
 16 30  1  0
 17 31  1  0
 19 32  1  0
 20 33  1  0
 34 35  1  0
 35 36  2  0
 36 37  1  0
 37 38  2  0
 38 39  1  0
 39 35  1  0
 34 40  1  0
 34 41  1  0
 36 42  1  0
 37 43  1  0
 38 44  1  0
  4 34  1  6
M  END
>  <attachment_point>  (237) 
21

>  <score>  (237) 
<NA>

$$$$
4djw
     RDKit          3D

 56 59  0  0  0  0  0  0  0  0999 V2000
   22.4950   11.8750   22.5810 C   0  0  0  0  0  0  0  0  0  0  0  0
   22.5380    9.4930   22.4640 N   0  0  0  0  0  0  0  0  0  0  0  0
   22.3600   13.0630   22.3480 O   0  0  0  0  0  0  0  0  0  0  0  0
   22.3390   10.6680   21.5610 C   0  0  2  0  0  0  0  0  0  0  0  0
   22.7860   11.3350   23.8120 N   0  0  0  0  0  0  0  0  0  0  0  0
   22.7800    9.9140   23.7010 C   0  0  0  0  0  0  0  0  0  0  0  0
   22.9970    9.1110   24.7490 N   0  0  0  0  0  0  0  0  0  0  0  0
   23.0220   12.1410   25.0180 C   0  0  0  0  0  0  0  0  0  0  0  0
   29.1260    9.8230   21.7090 N   0  0  0  0  0  0  0  0  0  0  0  0
   23.4880   10.6920   20.5300 C   0  0  0  0  0  0  0  0  0  0  0  0
   23.2110   10.7890   19.1730 C   0  0  0  0  0  0  0  0  0  0  0  0
   24.2350   10.8650   18.2430 C   0  0  0  0  0  0  0  0  0  0  0  0
   25.5500   10.8410   18.6560 C   0  0  0  0  0  0  0  0  0  0  0  0
   25.8710   10.7460   20.0070 C   0  0  0  0  0  0  0  0  0  0  0  0
   24.8260   10.6610   20.9430 C   0  0  0  0  0  0  0  0  0  0  0  0
   29.8540   10.9130   21.4510 C   0  0  0  0  0  0  0  0  0  0  0  0
   27.8830    9.7800   21.2080 C   0  0  0  0  0  0  0  0  0  0  0  0
   27.3000   10.8010   20.4650 C   0  0  0  0  0  0  0  0  0  0  0  0
   28.0930   11.9190   20.2200 C   0  0  0  0  0  0  0  0  0  0  0  0
   29.3850   11.9780   20.7130 C   0  0  0  0  0  0  0  0  0  0  0  0
    0.0000    0.0000    0.0000 H   0  0  0  0  0  0  0  0  0  0  0  0
    0.0000    0.0000    0.0000 H   0  0  0  0  0  0  0  0  0  0  0  0
    0.0000    0.0000    0.0000 H   0  0  0  0  0  0  0  0  0  0  0  0
    0.0000    0.0000    0.0000 H   0  0  0  0  0  0  0  0  0  0  0  0
    0.0000    0.0000    0.0000 H   0  0  0  0  0  0  0  0  0  0  0  0
    0.0000    0.0000    0.0000 H   0  0  0  0  0  0  0  0  0  0  0  0
    0.0000    0.0000    0.0000 H   0  0  0  0  0  0  0  0  0  0  0  0
    0.0000    0.0000    0.0000 H   0  0  0  0  0  0  0  0  0  0  0  0
    0.0000    0.0000    0.0000 H   0  0  0  0  0  0  0  0  0  0  0  0
    0.0000    0.0000    0.0000 H   0  0  0  0  0  0  0  0  0  0  0  0
    0.0000    0.0000    0.0000 H   0  0  0  0  0  0  0  0  0  0  0  0
    0.0000    0.0000    0.0000 H   0  0  0  0  0  0  0  0  0  0  0  0
    0.0000    0.0000    0.0000 H   0  0  0  0  0  0  0  0  0  0  0  0
   10.8732    5.1925   10.4945 C   0  0  0  0  0  0  0  0  0  0  0  0
    9.5437    5.5274   10.5957 C   0  0  0  0  0  0  0  0  0  0  0  0
    8.6800    5.0361    9.6496 C   0  0  0  0  0  0  0  0  0  0  0  0
    9.1531    4.2215    8.6210 C   0  0  0  0  0  0  0  0  0  0  0  0
    8.1328    3.7462    7.6537 C   0  0  0  0  0  0  0  0  0  0  0  0
    8.7265    2.8782    6.5831 C   0  0  0  0  0  0  0  0  0  0  0  0
    7.5634    4.9867    6.9788 C   0  0  0  0  0  0  0  0  0  0  0  0
    7.0686    3.0106    8.4022 C   0  0  0  0  0  0  0  0  0  0  0  0
   10.4844    3.9078    8.5507 C   0  0  0  0  0  0  0  0  0  0  0  0
   11.3755    4.3892    9.4904 C   0  0  0  0  0  0  0  0  0  0  0  0
    9.2198    6.1584   11.4046 H   0  0  0  0  0  0  0  0  0  0  0  0
    7.6122    5.2945    9.7159 H   0  0  0  0  0  0  0  0  0  0  0  0
    9.5706    3.3332    6.0656 H   0  0  0  0  0  0  0  0  0  0  0  0
    7.9204    2.7431    5.8039 H   0  0  0  0  0  0  0  0  0  0  0  0
    8.9406    1.8357    6.9480 H   0  0  0  0  0  0  0  0  0  0  0  0
    7.6151    5.8246    7.6924 H   0  0  0  0  0  0  0  0  0  0  0  0
    8.1222    5.1606    6.0517 H   0  0  0  0  0  0  0  0  0  0  0  0
    6.5052    4.7638    6.7621 H   0  0  0  0  0  0  0  0  0  0  0  0
    6.0753    3.3864    8.0188 H   0  0  0  0  0  0  0  0  0  0  0  0
    7.0992    3.1848    9.4975 H   0  0  0  0  0  0  0  0  0  0  0  0
    7.0744    1.9185    8.1564 H   0  0  0  0  0  0  0  0  0  0  0  0
   10.8036    3.2700    7.7309 H   0  0  0  0  0  0  0  0  0  0  0  0
   12.4252    4.1385    9.4301 H   0  0  0  0  0  0  0  0  0  0  0  0
  1  3  2  0
  1  4  1  0
  2  4  1  0
  1  5  1  0
  2  6  1  0
  5  6  1  0
  6  7  2  3
  5  8  1  0
  4 10  1  6
 10 11  2  0
 11 12  1  0
 12 13  2  0
 13 14  1  0
 10 15  1  0
 14 15  2  0
  9 16  2  0
  9 17  1  0
 14 18  1  0
 17 18  2  0
 18 19  1  0
 16 20  1  0
 19 20  2  0
  2 21  1  0
  7 22  1  0
  8 23  1  0
  8 24  1  0
  8 25  1  0
 11 26  1  0
 12 27  1  0
 13 28  1  0
 15 29  1  0
 16 30  1  0
 17 31  1  0
 19 32  1  0
 20 33  1  0
 34 35  2  0
 35 36  1  0
 36 37  2  0
 37 38  1  0
 38 39  1  0
 38 40  1  0
 38 41  1  0
 37 42  1  0
 42 43  2  0
 43 34  1  0
 35 44  1  0
 36 45  1  0
 39 46  1  0
 39 47  1  0
 39 48  1  0
 40 49  1  0
 40 50  1  0
 40 51  1  0
 41 52  1  0
 41 53  1  0
 41 54  1  0
 42 55  1  0
 43 56  1  0
  4 34  1  0
M  END
>  <attachment_point>  (238) 
21

>  <score>  (238) 
<NA>

$$$$
4djw
     RDKit          3D

 44 47  0  0  0  0  0  0  0  0999 V2000
   22.4950   11.8750   22.5810 C   0  0  0  0  0  0  0  0  0  0  0  0
   22.5380    9.4930   22.4640 N   0  0  0  0  0  0  0  0  0  0  0  0
   22.3600   13.0630   22.3480 O   0  0  0  0  0  0  0  0  0  0  0  0
   22.3390   10.6680   21.5610 C   0  0  2  0  0  0  0  0  0  0  0  0
   22.7860   11.3350   23.8120 N   0  0  0  0  0  0  0  0  0  0  0  0
   22.7800    9.9140   23.7010 C   0  0  0  0  0  0  0  0  0  0  0  0
   22.9970    9.1110   24.7490 N   0  0  0  0  0  0  0  0  0  0  0  0
   23.0220   12.1410   25.0180 C   0  0  0  0  0  0  0  0  0  0  0  0
   29.1260    9.8230   21.7090 N   0  0  0  0  0  0  0  0  0  0  0  0
   23.4880   10.6920   20.5300 C   0  0  0  0  0  0  0  0  0  0  0  0
   23.2110   10.7890   19.1730 C   0  0  0  0  0  0  0  0  0  0  0  0
   24.2350   10.8650   18.2430 C   0  0  0  0  0  0  0  0  0  0  0  0
   25.5500   10.8410   18.6560 C   0  0  0  0  0  0  0  0  0  0  0  0
   25.8710   10.7460   20.0070 C   0  0  0  0  0  0  0  0  0  0  0  0
   24.8260   10.6610   20.9430 C   0  0  0  0  0  0  0  0  0  0  0  0
   29.8540   10.9130   21.4510 C   0  0  0  0  0  0  0  0  0  0  0  0
   27.8830    9.7800   21.2080 C   0  0  0  0  0  0  0  0  0  0  0  0
   27.3000   10.8010   20.4650 C   0  0  0  0  0  0  0  0  0  0  0  0
   28.0930   11.9190   20.2200 C   0  0  0  0  0  0  0  0  0  0  0  0
   29.3850   11.9780   20.7130 C   0  0  0  0  0  0  0  0  0  0  0  0
    0.0000    0.0000    0.0000 H   0  0  0  0  0  0  0  0  0  0  0  0
    0.0000    0.0000    0.0000 H   0  0  0  0  0  0  0  0  0  0  0  0
    0.0000    0.0000    0.0000 H   0  0  0  0  0  0  0  0  0  0  0  0
    0.0000    0.0000    0.0000 H   0  0  0  0  0  0  0  0  0  0  0  0
    0.0000    0.0000    0.0000 H   0  0  0  0  0  0  0  0  0  0  0  0
    0.0000    0.0000    0.0000 H   0  0  0  0  0  0  0  0  0  0  0  0
    0.0000    0.0000    0.0000 H   0  0  0  0  0  0  0  0  0  0  0  0
    0.0000    0.0000    0.0000 H   0  0  0  0  0  0  0  0  0  0  0  0
    0.0000    0.0000    0.0000 H   0  0  0  0  0  0  0  0  0  0  0  0
    0.0000    0.0000    0.0000 H   0  0  0  0  0  0  0  0  0  0  0  0
    0.0000    0.0000    0.0000 H   0  0  0  0  0  0  0  0  0  0  0  0
    0.0000    0.0000    0.0000 H   0  0  0  0  0  0  0  0  0  0  0  0
    0.0000    0.0000    0.0000 H   0  0  0  0  0  0  0  0  0  0  0  0
   10.8540    5.1833   10.4760 C   0  0  0  0  0  0  0  0  0  0  0  0
   11.0145    3.9860    9.8456 C   0  0  0  0  0  0  0  0  0  0  0  0
   10.0760    3.5196    8.9284 C   0  0  0  0  0  0  0  0  0  0  0  0
    8.9626    4.2863    8.6539 C   0  0  0  0  0  0  0  0  0  0  0  0
    8.7912    5.5011    9.2878 C   0  0  0  0  0  0  0  0  0  0  0  0
    7.2830    6.6165    8.9635 Br  0  0  0  0  0  0  0  0  0  0  0  0
    9.7484    5.9360   10.1981 C   0  0  0  0  0  0  0  0  0  0  0  0
   11.8704    3.3599   10.0339 H   0  0  0  0  0  0  0  0  0  0  0  0
   10.1839    2.5778    8.4204 H   0  0  0  0  0  0  0  0  0  0  0  0
    8.2259    3.9243    7.9366 H   0  0  0  0  0  0  0  0  0  0  0  0
    9.6521    6.8853   10.7187 H   0  0  0  0  0  0  0  0  0  0  0  0
  1  3  2  0
  1  4  1  0
  2  4  1  0
  1  5  1  0
  2  6  1  0
  5  6  1  0
  6  7  2  3
  5  8  1  0
  4 10  1  6
 10 11  2  0
 11 12  1  0
 12 13  2  0
 13 14  1  0
 10 15  1  0
 14 15  2  0
  9 16  2  0
  9 17  1  0
 14 18  1  0
 17 18  2  0
 18 19  1  0
 16 20  1  0
 19 20  2  0
  2 21  1  0
  7 22  1  0
  8 23  1  0
  8 24  1  0
  8 25  1  0
 11 26  1  0
 12 27  1  0
 13 28  1  0
 15 29  1  0
 16 30  1  0
 17 31  1  0
 19 32  1  0
 20 33  1  0
 34 35  2  0
 35 36  1  0
 36 37  2  0
 37 38  1  0
 38 39  1  0
 38 40  2  0
 40 34  1  0
 35 41  1  0
 36 42  1  0
 37 43  1  0
 40 44  1  0
  4 34  1  0
M  END
>  <attachment_point>  (239) 
21

>  <score>  (239) 
<NA>

$$$$
4djw
     RDKit          3D

 54 57  0  0  0  0  0  0  0  0999 V2000
   22.4950   11.8750   22.5810 C   0  0  0  0  0  0  0  0  0  0  0  0
   22.5380    9.4930   22.4640 N   0  0  0  0  0  0  0  0  0  0  0  0
   22.3600   13.0630   22.3480 O   0  0  0  0  0  0  0  0  0  0  0  0
   22.3390   10.6680   21.5610 C   0  0  2  0  0  0  0  0  0  0  0  0
   22.7860   11.3350   23.8120 N   0  0  0  0  0  0  0  0  0  0  0  0
   22.7800    9.9140   23.7010 C   0  0  0  0  0  0  0  0  0  0  0  0
   22.9970    9.1110   24.7490 N   0  0  0  0  0  0  0  0  0  0  0  0
   23.0220   12.1410   25.0180 C   0  0  0  0  0  0  0  0  0  0  0  0
   29.1260    9.8230   21.7090 N   0  0  0  0  0  0  0  0  0  0  0  0
   23.4880   10.6920   20.5300 C   0  0  0  0  0  0  0  0  0  0  0  0
   23.2110   10.7890   19.1730 C   0  0  0  0  0  0  0  0  0  0  0  0
   24.2350   10.8650   18.2430 C   0  0  0  0  0  0  0  0  0  0  0  0
   25.5500   10.8410   18.6560 C   0  0  0  0  0  0  0  0  0  0  0  0
   25.8710   10.7460   20.0070 C   0  0  0  0  0  0  0  0  0  0  0  0
   24.8260   10.6610   20.9430 C   0  0  0  0  0  0  0  0  0  0  0  0
   29.8540   10.9130   21.4510 C   0  0  0  0  0  0  0  0  0  0  0  0
   27.8830    9.7800   21.2080 C   0  0  0  0  0  0  0  0  0  0  0  0
   27.3000   10.8010   20.4650 C   0  0  0  0  0  0  0  0  0  0  0  0
   28.0930   11.9190   20.2200 C   0  0  0  0  0  0  0  0  0  0  0  0
   29.3850   11.9780   20.7130 C   0  0  0  0  0  0  0  0  0  0  0  0
    0.0000    0.0000    0.0000 H   0  0  0  0  0  0  0  0  0  0  0  0
    0.0000    0.0000    0.0000 H   0  0  0  0  0  0  0  0  0  0  0  0
    0.0000    0.0000    0.0000 H   0  0  0  0  0  0  0  0  0  0  0  0
    0.0000    0.0000    0.0000 H   0  0  0  0  0  0  0  0  0  0  0  0
    0.0000    0.0000    0.0000 H   0  0  0  0  0  0  0  0  0  0  0  0
    0.0000    0.0000    0.0000 H   0  0  0  0  0  0  0  0  0  0  0  0
    0.0000    0.0000    0.0000 H   0  0  0  0  0  0  0  0  0  0  0  0
    0.0000    0.0000    0.0000 H   0  0  0  0  0  0  0  0  0  0  0  0
    0.0000    0.0000    0.0000 H   0  0  0  0  0  0  0  0  0  0  0  0
    0.0000    0.0000    0.0000 H   0  0  0  0  0  0  0  0  0  0  0  0
    0.0000    0.0000    0.0000 H   0  0  0  0  0  0  0  0  0  0  0  0
    0.0000    0.0000    0.0000 H   0  0  0  0  0  0  0  0  0  0  0  0
    0.0000    0.0000    0.0000 H   0  0  0  0  0  0  0  0  0  0  0  0
   10.8444    5.1787   10.4667 N   0  0  0  0  0  0  0  0  0  0  0  0
    9.5042    5.3920   10.8145 C   0  0  0  0  0  0  0  0  0  0  0  0
    9.2795    5.9766   11.9285 O   0  0  0  0  0  0  0  0  0  0  0  0
    8.3898    4.9580    9.9276 C   0  0  0  0  0  0  0  0  0  0  0  0
    8.4471    5.6087    8.5757 C   0  0  0  0  0  0  0  0  0  0  0  0
    7.2505    5.1671    7.7839 C   0  0  0  0  0  0  0  0  0  0  0  0
    6.4333    4.1118    8.4607 C   0  0  0  0  0  0  0  0  0  0  0  0
    7.2651    2.9663    8.9636 C   0  0  0  0  0  0  0  0  0  0  0  0
    8.3665    3.4552    9.8506 C   0  0  0  0  0  0  0  0  0  0  0  0
   11.1921    4.7400    9.6389 H   0  0  0  0  0  0  0  0  0  0  0  0
    7.4433    5.2782   10.4098 H   0  0  0  0  0  0  0  0  0  0  0  0
    9.4054    5.4791    8.0547 H   0  0  0  0  0  0  0  0  0  0  0  0
    8.3341    6.7121    8.7471 H   0  0  0  0  0  0  0  0  0  0  0  0
    6.5537    6.0170    7.5489 H   0  0  0  0  0  0  0  0  0  0  0  0
    7.5857    4.7993    6.7712 H   0  0  0  0  0  0  0  0  0  0  0  0
    5.8592    4.5391    9.3028 H   0  0  0  0  0  0  0  0  0  0  0  0
    5.7199    3.7016    7.7158 H   0  0  0  0  0  0  0  0  0  0  0  0
    6.5666    2.2558    9.4762 H   0  0  0  0  0  0  0  0  0  0  0  0
    7.6529    2.4049    8.0745 H   0  0  0  0  0  0  0  0  0  0  0  0
    9.3360    3.0304    9.5196 H   0  0  0  0  0  0  0  0  0  0  0  0
    8.1767    3.0647   10.8739 H   0  0  0  0  0  0  0  0  0  0  0  0
  1  3  2  0
  1  4  1  0
  2  4  1  0
  1  5  1  0
  2  6  1  0
  5  6  1  0
  6  7  2  3
  5  8  1  0
  4 10  1  0
 10 11  2  0
 11 12  1  0
 12 13  2  0
 13 14  1  0
 10 15  1  0
 14 15  2  0
  9 16  2  0
  9 17  1  0
 14 18  1  0
 17 18  2  0
 18 19  1  0
 16 20  1  0
 19 20  2  0
  2 21  1  0
  7 22  1  0
  8 23  1  0
  8 24  1  0
  8 25  1  0
 11 26  1  0
 12 27  1  0
 13 28  1  0
 15 29  1  0
 16 30  1  0
 17 31  1  0
 19 32  1  0
 20 33  1  0
 34 35  1  0
 35 36  2  0
 35 37  1  0
 37 38  1  0
 38 39  1  0
 39 40  1  0
 40 41  1  0
 41 42  1  0
 42 37  1  0
 34 43  1  0
 37 44  1  0
 38 45  1  0
 38 46  1  0
 39 47  1  0
 39 48  1  0
 40 49  1  0
 40 50  1  0
 41 51  1  0
 41 52  1  0
 42 53  1  0
 42 54  1  0
  4 34  1  6
M  END
>  <attachment_point>  (240) 
21

>  <score>  (240) 
<NA>

$$$$
4djw
     RDKit          3D

 45 48  0  0  0  0  0  0  0  0999 V2000
   22.4950   11.8750   22.5810 C   0  0  0  0  0  0  0  0  0  0  0  0
   22.5380    9.4930   22.4640 N   0  0  0  0  0  0  0  0  0  0  0  0
   22.3600   13.0630   22.3480 O   0  0  0  0  0  0  0  0  0  0  0  0
   22.3390   10.6680   21.5610 C   0  0  2  0  0  0  0  0  0  0  0  0
   22.7860   11.3350   23.8120 N   0  0  0  0  0  0  0  0  0  0  0  0
   22.7800    9.9140   23.7010 C   0  0  0  0  0  0  0  0  0  0  0  0
   22.9970    9.1110   24.7490 N   0  0  0  0  0  0  0  0  0  0  0  0
   23.0220   12.1410   25.0180 C   0  0  0  0  0  0  0  0  0  0  0  0
   29.1260    9.8230   21.7090 N   0  0  0  0  0  0  0  0  0  0  0  0
   23.4880   10.6920   20.5300 C   0  0  0  0  0  0  0  0  0  0  0  0
   23.2110   10.7890   19.1730 C   0  0  0  0  0  0  0  0  0  0  0  0
   24.2350   10.8650   18.2430 C   0  0  0  0  0  0  0  0  0  0  0  0
   25.5500   10.8410   18.6560 C   0  0  0  0  0  0  0  0  0  0  0  0
   25.8710   10.7460   20.0070 C   0  0  0  0  0  0  0  0  0  0  0  0
   24.8260   10.6610   20.9430 C   0  0  0  0  0  0  0  0  0  0  0  0
   29.8540   10.9130   21.4510 C   0  0  0  0  0  0  0  0  0  0  0  0
   27.8830    9.7800   21.2080 C   0  0  0  0  0  0  0  0  0  0  0  0
   27.3000   10.8010   20.4650 C   0  0  0  0  0  0  0  0  0  0  0  0
   28.0930   11.9190   20.2200 C   0  0  0  0  0  0  0  0  0  0  0  0
   29.3850   11.9780   20.7130 C   0  0  0  0  0  0  0  0  0  0  0  0
    0.0000    0.0000    0.0000 H   0  0  0  0  0  0  0  0  0  0  0  0
    0.0000    0.0000    0.0000 H   0  0  0  0  0  0  0  0  0  0  0  0
    0.0000    0.0000    0.0000 H   0  0  0  0  0  0  0  0  0  0  0  0
    0.0000    0.0000    0.0000 H   0  0  0  0  0  0  0  0  0  0  0  0
    0.0000    0.0000    0.0000 H   0  0  0  0  0  0  0  0  0  0  0  0
    0.0000    0.0000    0.0000 H   0  0  0  0  0  0  0  0  0  0  0  0
    0.0000    0.0000    0.0000 H   0  0  0  0  0  0  0  0  0  0  0  0
    0.0000    0.0000    0.0000 H   0  0  0  0  0  0  0  0  0  0  0  0
    0.0000    0.0000    0.0000 H   0  0  0  0  0  0  0  0  0  0  0  0
    0.0000    0.0000    0.0000 H   0  0  0  0  0  0  0  0  0  0  0  0
    0.0000    0.0000    0.0000 H   0  0  0  0  0  0  0  0  0  0  0  0
    0.0000    0.0000    0.0000 H   0  0  0  0  0  0  0  0  0  0  0  0
    0.0000    0.0000    0.0000 H   0  0  0  0  0  0  0  0  0  0  0  0
   10.8598    5.1861   10.4816 O   0  0  0  0  0  0  0  0  0  0  0  0
   11.3945    4.2268    9.6133 C   0  0  0  0  0  0  0  0  0  0  0  0
   11.3302    2.8789    9.8991 C   0  0  0  0  0  0  0  0  0  0  0  0
   11.8611    1.9442    9.0346 C   0  0  0  0  0  0  0  0  0  0  0  0
   12.4796    2.3009    7.8486 C   0  0  0  0  0  0  0  0  0  0  0  0
   12.9979    1.3727    7.0068 F   0  0  0  0  0  0  0  0  0  0  0  0
   12.5356    3.6535    7.5776 C   0  0  0  0  0  0  0  0  0  0  0  0
   12.0077    4.5975    8.4353 C   0  0  0  0  0  0  0  0  0  0  0  0
   10.8431    2.5967   10.8333 H   0  0  0  0  0  0  0  0  0  0  0  0
   11.8072    0.8865    9.2654 H   0  0  0  0  0  0  0  0  0  0  0  0
   13.0181    3.9634    6.6484 H   0  0  0  0  0  0  0  0  0  0  0  0
   12.0525    5.6537    8.2217 H   0  0  0  0  0  0  0  0  0  0  0  0
  1  3  2  0
  1  4  1  0
  2  4  1  0
  1  5  1  0
  2  6  1  0
  5  6  1  0
  6  7  2  3
  5  8  1  0
  4 10  1  0
 10 11  2  0
 11 12  1  0
 12 13  2  0
 13 14  1  0
 10 15  1  0
 14 15  2  0
  9 16  2  0
  9 17  1  0
 14 18  1  0
 17 18  2  0
 18 19  1  0
 16 20  1  0
 19 20  2  0
  2 21  1  0
  7 22  1  0
  8 23  1  0
  8 24  1  0
  8 25  1  0
 11 26  1  0
 12 27  1  0
 13 28  1  0
 15 29  1  0
 16 30  1  0
 17 31  1  0
 19 32  1  0
 20 33  1  0
 34 35  1  0
 35 36  2  0
 36 37  1  0
 37 38  2  0
 38 39  1  0
 38 40  1  0
 40 41  2  0
 41 35  1  0
 36 42  1  0
 37 43  1  0
 40 44  1  0
 41 45  1  0
  4 34  1  6
M  END
>  <attachment_point>  (241) 
21

>  <score>  (241) 
<NA>

$$$$
4djw
     RDKit          3D

 45 48  0  0  0  0  0  0  0  0999 V2000
   22.4950   11.8750   22.5810 C   0  0  0  0  0  0  0  0  0  0  0  0
   22.5380    9.4930   22.4640 N   0  0  0  0  0  0  0  0  0  0  0  0
   22.3600   13.0630   22.3480 O   0  0  0  0  0  0  0  0  0  0  0  0
   22.3390   10.6680   21.5610 C   0  0  2  0  0  0  0  0  0  0  0  0
   22.7860   11.3350   23.8120 N   0  0  0  0  0  0  0  0  0  0  0  0
   22.7800    9.9140   23.7010 C   0  0  0  0  0  0  0  0  0  0  0  0
   22.9970    9.1110   24.7490 N   0  0  0  0  0  0  0  0  0  0  0  0
   23.0220   12.1410   25.0180 C   0  0  0  0  0  0  0  0  0  0  0  0
   29.1260    9.8230   21.7090 N   0  0  0  0  0  0  0  0  0  0  0  0
   23.4880   10.6920   20.5300 C   0  0  0  0  0  0  0  0  0  0  0  0
   23.2110   10.7890   19.1730 C   0  0  0  0  0  0  0  0  0  0  0  0
   24.2350   10.8650   18.2430 C   0  0  0  0  0  0  0  0  0  0  0  0
   25.5500   10.8410   18.6560 C   0  0  0  0  0  0  0  0  0  0  0  0
   25.8710   10.7460   20.0070 C   0  0  0  0  0  0  0  0  0  0  0  0
   24.8260   10.6610   20.9430 C   0  0  0  0  0  0  0  0  0  0  0  0
   29.8540   10.9130   21.4510 C   0  0  0  0  0  0  0  0  0  0  0  0
   27.8830    9.7800   21.2080 C   0  0  0  0  0  0  0  0  0  0  0  0
   27.3000   10.8010   20.4650 C   0  0  0  0  0  0  0  0  0  0  0  0
   28.0930   11.9190   20.2200 C   0  0  0  0  0  0  0  0  0  0  0  0
   29.3850   11.9780   20.7130 C   0  0  0  0  0  0  0  0  0  0  0  0
    0.0000    0.0000    0.0000 H   0  0  0  0  0  0  0  0  0  0  0  0
    0.0000    0.0000    0.0000 H   0  0  0  0  0  0  0  0  0  0  0  0
    0.0000    0.0000    0.0000 H   0  0  0  0  0  0  0  0  0  0  0  0
    0.0000    0.0000    0.0000 H   0  0  0  0  0  0  0  0  0  0  0  0
    0.0000    0.0000    0.0000 H   0  0  0  0  0  0  0  0  0  0  0  0
    0.0000    0.0000    0.0000 H   0  0  0  0  0  0  0  0  0  0  0  0
    0.0000    0.0000    0.0000 H   0  0  0  0  0  0  0  0  0  0  0  0
    0.0000    0.0000    0.0000 H   0  0  0  0  0  0  0  0  0  0  0  0
    0.0000    0.0000    0.0000 H   0  0  0  0  0  0  0  0  0  0  0  0
    0.0000    0.0000    0.0000 H   0  0  0  0  0  0  0  0  0  0  0  0
    0.0000    0.0000    0.0000 H   0  0  0  0  0  0  0  0  0  0  0  0
    0.0000    0.0000    0.0000 H   0  0  0  0  0  0  0  0  0  0  0  0
    0.0000    0.0000    0.0000 H   0  0  0  0  0  0  0  0  0  0  0  0
   10.7799    5.1479   10.4045 C   0  0  0  0  0  0  0  0  0  0  0  0
   10.0173    4.7726    9.6414 C   0  0  0  0  0  0  0  0  0  0  0  0
    9.0894    4.2979    8.6807 C   0  0  0  0  0  0  0  0  0  0  0  0
    7.7942    3.9993    9.0455 C   0  0  0  0  0  0  0  0  0  0  0  0
    6.8853    3.5380    8.1237 C   0  0  0  0  0  0  0  0  0  0  0  0
    7.2851    3.3758    6.8216 C   0  0  0  0  0  0  0  0  0  0  0  0
    8.5648    3.6726    6.4691 C   0  0  0  0  0  0  0  0  0  0  0  0
    9.4289    4.1192    7.3829 N   0  0  0  0  0  0  0  0  0  0  0  0
    7.5304    4.1474   10.0951 H   0  0  0  0  0  0  0  0  0  0  0  0
    5.8599    3.3027    8.4178 H   0  0  0  0  0  0  0  0  0  0  0  0
    6.5336    3.0098    6.1317 H   0  0  0  0  0  0  0  0  0  0  0  0
    8.8495    3.5342    5.4347 H   0  0  0  0  0  0  0  0  0  0  0  0
  1  3  2  0
  1  4  1  0
  2  4  1  0
  1  5  1  0
  2  6  1  0
  5  6  1  0
  6  7  2  3
  5  8  1  0
  4 10  1  0
 10 11  2  0
 11 12  1  0
 12 13  2  0
 13 14  1  0
 10 15  1  0
 14 15  2  0
  9 16  2  0
  9 17  1  0
 14 18  1  0
 17 18  2  0
 18 19  1  0
 16 20  1  0
 19 20  2  0
  2 21  1  0
  7 22  1  0
  8 23  1  0
  8 24  1  0
  8 25  1  0
 11 26  1  0
 12 27  1  0
 13 28  1  0
 15 29  1  0
 16 30  1  0
 17 31  1  0
 19 32  1  0
 20 33  1  0
 34 35  3  0
 35 36  1  0
 36 37  2  0
 37 38  1  0
 38 39  2  0
 39 40  1  0
 40 41  2  0
 41 36  1  0
 37 42  1  0
 38 43  1  0
 39 44  1  0
 40 45  1  0
  4 34  1  6
M  END
>  <attachment_point>  (242) 
21

>  <score>  (242) 
<NA>

$$$$
4djw
     RDKit          3D

 51 54  0  0  0  0  0  0  0  0999 V2000
   22.4950   11.8750   22.5810 C   0  0  0  0  0  0  0  0  0  0  0  0
   22.5380    9.4930   22.4640 N   0  0  0  0  0  0  0  0  0  0  0  0
   22.3600   13.0630   22.3480 O   0  0  0  0  0  0  0  0  0  0  0  0
   22.3390   10.6680   21.5610 C   0  0  2  0  0  0  0  0  0  0  0  0
   22.7860   11.3350   23.8120 N   0  0  0  0  0  0  0  0  0  0  0  0
   22.7800    9.9140   23.7010 C   0  0  0  0  0  0  0  0  0  0  0  0
   22.9970    9.1110   24.7490 N   0  0  0  0  0  0  0  0  0  0  0  0
   23.0220   12.1410   25.0180 C   0  0  0  0  0  0  0  0  0  0  0  0
   29.1260    9.8230   21.7090 N   0  0  0  0  0  0  0  0  0  0  0  0
   23.4880   10.6920   20.5300 C   0  0  0  0  0  0  0  0  0  0  0  0
   23.2110   10.7890   19.1730 C   0  0  0  0  0  0  0  0  0  0  0  0
   24.2350   10.8650   18.2430 C   0  0  0  0  0  0  0  0  0  0  0  0
   25.5500   10.8410   18.6560 C   0  0  0  0  0  0  0  0  0  0  0  0
   25.8710   10.7460   20.0070 C   0  0  0  0  0  0  0  0  0  0  0  0
   24.8260   10.6610   20.9430 C   0  0  0  0  0  0  0  0  0  0  0  0
   29.8540   10.9130   21.4510 C   0  0  0  0  0  0  0  0  0  0  0  0
   27.8830    9.7800   21.2080 C   0  0  0  0  0  0  0  0  0  0  0  0
   27.3000   10.8010   20.4650 C   0  0  0  0  0  0  0  0  0  0  0  0
   28.0930   11.9190   20.2200 C   0  0  0  0  0  0  0  0  0  0  0  0
   29.3850   11.9780   20.7130 C   0  0  0  0  0  0  0  0  0  0  0  0
    0.0000    0.0000    0.0000 H   0  0  0  0  0  0  0  0  0  0  0  0
    0.0000    0.0000    0.0000 H   0  0  0  0  0  0  0  0  0  0  0  0
    0.0000    0.0000    0.0000 H   0  0  0  0  0  0  0  0  0  0  0  0
    0.0000    0.0000    0.0000 H   0  0  0  0  0  0  0  0  0  0  0  0
    0.0000    0.0000    0.0000 H   0  0  0  0  0  0  0  0  0  0  0  0
    0.0000    0.0000    0.0000 H   0  0  0  0  0  0  0  0  0  0  0  0
    0.0000    0.0000    0.0000 H   0  0  0  0  0  0  0  0  0  0  0  0
    0.0000    0.0000    0.0000 H   0  0  0  0  0  0  0  0  0  0  0  0
    0.0000    0.0000    0.0000 H   0  0  0  0  0  0  0  0  0  0  0  0
    0.0000    0.0000    0.0000 H   0  0  0  0  0  0  0  0  0  0  0  0
    0.0000    0.0000    0.0000 H   0  0  0  0  0  0  0  0  0  0  0  0
    0.0000    0.0000    0.0000 H   0  0  0  0  0  0  0  0  0  0  0  0
    0.0000    0.0000    0.0000 H   0  0  0  0  0  0  0  0  0  0  0  0
   10.7733    5.1448   10.3981 C   0  0  0  0  0  0  0  0  0  0  0  0
   11.6168    5.0459    9.2800 N   0  0  0  0  0  0  0  0  0  0  0  0
   12.7265    4.1553    9.4103 C   0  0  0  0  0  0  0  0  0  0  0  0
   13.6766    4.6024   10.5189 C   0  0  0  0  0  0  0  0  0  0  0  0
   14.2038    5.8925   10.1150 N   0  0  0  0  0  0  0  0  0  0  0  0
   13.1078    6.8260   10.0436 C   0  0  0  0  0  0  0  0  0  0  0  0
   12.1442    6.3591    8.9544 C   0  0  0  0  0  0  0  0  0  0  0  0
   10.2203    6.0465   10.5549 H   0  0  0  0  0  0  0  0  0  0  0  0
   10.5310    4.2633   10.9514 H   0  0  0  0  0  0  0  0  0  0  0  0
   12.4725    3.0991    9.4932 H   0  0  0  0  0  0  0  0  0  0  0  0
   13.3289    4.2574    8.4615 H   0  0  0  0  0  0  0  0  0  0  0  0
   13.1189    4.6418   11.4693 H   0  0  0  0  0  0  0  0  0  0  0  0
   14.5010    3.8547   10.5678 H   0  0  0  0  0  0  0  0  0  0  0  0
   14.5745    5.7595    9.1360 H   0  0  0  0  0  0  0  0  0  0  0  0
   12.5850    6.7941   11.0207 H   0  0  0  0  0  0  0  0  0  0  0  0
   13.4282    7.8382    9.7608 H   0  0  0  0  0  0  0  0  0  0  0  0
   11.3567    7.1041    8.7533 H   0  0  0  0  0  0  0  0  0  0  0  0
   12.7620    6.2142    8.0202 H   0  0  0  0  0  0  0  0  0  0  0  0
  1  3  2  0
  1  4  1  0
  2  4  1  0
  1  5  1  0
  2  6  1  0
  5  6  1  0
  6  7  2  3
  5  8  1  0
  4 10  1  0
 10 11  2  0
 11 12  1  0
 12 13  2  0
 13 14  1  0
 10 15  1  0
 14 15  2  0
  9 16  2  0
  9 17  1  0
 14 18  1  0
 17 18  2  0
 18 19  1  0
 16 20  1  0
 19 20  2  0
  2 21  1  0
  7 22  1  0
  8 23  1  0
  8 24  1  0
  8 25  1  0
 11 26  1  0
 12 27  1  0
 13 28  1  0
 15 29  1  0
 16 30  1  0
 17 31  1  0
 19 32  1  0
 20 33  1  0
 34 35  1  0
 35 36  1  0
 36 37  1  0
 37 38  1  0
 38 39  1  0
 39 40  1  0
 40 35  1  0
 34 41  1  0
 34 42  1  0
 36 43  1  0
 36 44  1  0
 37 45  1  0
 37 46  1  0
 38 47  1  0
 39 48  1  0
 39 49  1  0
 40 50  1  0
 40 51  1  0
  4 34  1  6
M  END
>  <attachment_point>  (243) 
21

>  <score>  (243) 
<NA>

$$$$
4djw
     RDKit          3D

 53 56  0  0  0  0  0  0  0  0999 V2000
   22.4950   11.8750   22.5810 C   0  0  0  0  0  0  0  0  0  0  0  0
   22.5380    9.4930   22.4640 N   0  0  0  0  0  0  0  0  0  0  0  0
   22.3600   13.0630   22.3480 O   0  0  0  0  0  0  0  0  0  0  0  0
   22.3390   10.6680   21.5610 C   0  0  2  0  0  0  0  0  0  0  0  0
   22.7860   11.3350   23.8120 N   0  0  0  0  0  0  0  0  0  0  0  0
   22.7800    9.9140   23.7010 C   0  0  0  0  0  0  0  0  0  0  0  0
   22.9970    9.1110   24.7490 N   0  0  0  0  0  0  0  0  0  0  0  0
   23.0220   12.1410   25.0180 C   0  0  0  0  0  0  0  0  0  0  0  0
   29.1260    9.8230   21.7090 N   0  0  0  0  0  0  0  0  0  0  0  0
   23.4880   10.6920   20.5300 C   0  0  0  0  0  0  0  0  0  0  0  0
   23.2110   10.7890   19.1730 C   0  0  0  0  0  0  0  0  0  0  0  0
   24.2350   10.8650   18.2430 C   0  0  0  0  0  0  0  0  0  0  0  0
   25.5500   10.8410   18.6560 C   0  0  0  0  0  0  0  0  0  0  0  0
   25.8710   10.7460   20.0070 C   0  0  0  0  0  0  0  0  0  0  0  0
   24.8260   10.6610   20.9430 C   0  0  0  0  0  0  0  0  0  0  0  0
   29.8540   10.9130   21.4510 C   0  0  0  0  0  0  0  0  0  0  0  0
   27.8830    9.7800   21.2080 C   0  0  0  0  0  0  0  0  0  0  0  0
   27.3000   10.8010   20.4650 C   0  0  0  0  0  0  0  0  0  0  0  0
   28.0930   11.9190   20.2200 C   0  0  0  0  0  0  0  0  0  0  0  0
   29.3850   11.9780   20.7130 C   0  0  0  0  0  0  0  0  0  0  0  0
    0.0000    0.0000    0.0000 H   0  0  0  0  0  0  0  0  0  0  0  0
    0.0000    0.0000    0.0000 H   0  0  0  0  0  0  0  0  0  0  0  0
    0.0000    0.0000    0.0000 H   0  0  0  0  0  0  0  0  0  0  0  0
    0.0000    0.0000    0.0000 H   0  0  0  0  0  0  0  0  0  0  0  0
    0.0000    0.0000    0.0000 H   0  0  0  0  0  0  0  0  0  0  0  0
    0.0000    0.0000    0.0000 H   0  0  0  0  0  0  0  0  0  0  0  0
    0.0000    0.0000    0.0000 H   0  0  0  0  0  0  0  0  0  0  0  0
    0.0000    0.0000    0.0000 H   0  0  0  0  0  0  0  0  0  0  0  0
    0.0000    0.0000    0.0000 H   0  0  0  0  0  0  0  0  0  0  0  0
    0.0000    0.0000    0.0000 H   0  0  0  0  0  0  0  0  0  0  0  0
    0.0000    0.0000    0.0000 H   0  0  0  0  0  0  0  0  0  0  0  0
    0.0000    0.0000    0.0000 H   0  0  0  0  0  0  0  0  0  0  0  0
    0.0000    0.0000    0.0000 H   0  0  0  0  0  0  0  0  0  0  0  0
   10.9373    5.2231   10.5564 N   0  0  0  0  0  0  0  0  0  0  0  0
   10.4653    3.8425   10.7346 C   0  0  0  0  0  0  0  0  0  0  0  0
    9.8541    3.8017   12.1021 C   0  0  0  0  0  0  0  0  0  0  0  0
    8.5328    4.0857   12.2300 C   0  0  0  0  0  0  0  0  0  0  0  0
    7.9272    4.0588   13.4818 C   0  0  0  0  0  0  0  0  0  0  0  0
    8.6652    3.7435   14.6016 C   0  0  0  0  0  0  0  0  0  0  0  0
    8.0985    3.7061   15.8668 O   0  0  0  0  0  0  0  0  0  0  0  0
    6.7282    3.9917   16.0663 C   0  0  0  0  0  0  0  0  0  0  0  0
   10.0074    3.4567   14.4596 C   0  0  0  0  0  0  0  0  0  0  0  0
   10.6059    3.4858   13.2018 C   0  0  0  0  0  0  0  0  0  0  0  0
   10.8859    5.4698    9.5438 H   0  0  0  0  0  0  0  0  0  0  0  0
    9.7417    3.6579    9.9388 H   0  0  0  0  0  0  0  0  0  0  0  0
   11.3226    3.1314   10.6965 H   0  0  0  0  0  0  0  0  0  0  0  0
    7.8998    4.3400   11.3921 H   0  0  0  0  0  0  0  0  0  0  0  0
    6.8600    4.2880   13.5869 H   0  0  0  0  0  0  0  0  0  0  0  0
    6.1142    3.1625   15.6283 H   0  0  0  0  0  0  0  0  0  0  0  0
    6.5434    4.1253   17.1511 H   0  0  0  0  0  0  0  0  0  0  0  0
    6.4808    4.9063   15.4934 H   0  0  0  0  0  0  0  0  0  0  0  0
   10.6268    3.2022   15.3218 H   0  0  0  0  0  0  0  0  0  0  0  0
   11.6500    3.2584   13.1240 H   0  0  0  0  0  0  0  0  0  0  0  0
  1  3  2  0
  1  4  1  0
  2  4  1  0
  1  5  1  0
  2  6  1  0
  5  6  1  0
  6  7  2  3
  5  8  1  0
  4 10  1  0
 10 11  2  0
 11 12  1  0
 12 13  2  0
 13 14  1  0
 10 15  1  0
 14 15  2  0
  9 16  2  0
  9 17  1  0
 14 18  1  0
 17 18  2  0
 18 19  1  0
 16 20  1  0
 19 20  2  0
  2 21  1  0
  7 22  1  0
  8 23  1  0
  8 24  1  0
  8 25  1  0
 11 26  1  0
 12 27  1  0
 13 28  1  0
 15 29  1  0
 16 30  1  0
 17 31  1  0
 19 32  1  0
 20 33  1  0
 34 35  1  0
 35 36  1  0
 36 37  2  0
 37 38  1  0
 38 39  2  0
 39 40  1  0
 40 41  1  0
 39 42  1  0
 42 43  2  0
 43 36  1  0
 34 44  1  0
 35 45  1  0
 35 46  1  0
 37 47  1  0
 38 48  1  0
 41 49  1  0
 41 50  1  0
 41 51  1  0
 42 52  1  0
 43 53  1  0
  4 34  1  6
M  END
>  <attachment_point>  (244) 
21

>  <score>  (244) 
<NA>

$$$$
4djw
     RDKit          3D

 46 49  0  0  0  0  0  0  0  0999 V2000
   22.4950   11.8750   22.5810 C   0  0  0  0  0  0  0  0  0  0  0  0
   22.5380    9.4930   22.4640 N   0  0  0  0  0  0  0  0  0  0  0  0
   22.3600   13.0630   22.3480 O   0  0  0  0  0  0  0  0  0  0  0  0
   22.3390   10.6680   21.5610 C   0  0  2  0  0  0  0  0  0  0  0  0
   22.7860   11.3350   23.8120 N   0  0  0  0  0  0  0  0  0  0  0  0
   22.7800    9.9140   23.7010 C   0  0  0  0  0  0  0  0  0  0  0  0
   22.9970    9.1110   24.7490 N   0  0  0  0  0  0  0  0  0  0  0  0
   23.0220   12.1410   25.0180 C   0  0  0  0  0  0  0  0  0  0  0  0
   29.1260    9.8230   21.7090 N   0  0  0  0  0  0  0  0  0  0  0  0
   23.4880   10.6920   20.5300 C   0  0  0  0  0  0  0  0  0  0  0  0
   23.2110   10.7890   19.1730 C   0  0  0  0  0  0  0  0  0  0  0  0
   24.2350   10.8650   18.2430 C   0  0  0  0  0  0  0  0  0  0  0  0
   25.5500   10.8410   18.6560 C   0  0  0  0  0  0  0  0  0  0  0  0
   25.8710   10.7460   20.0070 C   0  0  0  0  0  0  0  0  0  0  0  0
   24.8260   10.6610   20.9430 C   0  0  0  0  0  0  0  0  0  0  0  0
   29.8540   10.9130   21.4510 C   0  0  0  0  0  0  0  0  0  0  0  0
   27.8830    9.7800   21.2080 C   0  0  0  0  0  0  0  0  0  0  0  0
   27.3000   10.8010   20.4650 C   0  0  0  0  0  0  0  0  0  0  0  0
   28.0930   11.9190   20.2200 C   0  0  0  0  0  0  0  0  0  0  0  0
   29.3850   11.9780   20.7130 C   0  0  0  0  0  0  0  0  0  0  0  0
    0.0000    0.0000    0.0000 H   0  0  0  0  0  0  0  0  0  0  0  0
    0.0000    0.0000    0.0000 H   0  0  0  0  0  0  0  0  0  0  0  0
    0.0000    0.0000    0.0000 H   0  0  0  0  0  0  0  0  0  0  0  0
    0.0000    0.0000    0.0000 H   0  0  0  0  0  0  0  0  0  0  0  0
    0.0000    0.0000    0.0000 H   0  0  0  0  0  0  0  0  0  0  0  0
    0.0000    0.0000    0.0000 H   0  0  0  0  0  0  0  0  0  0  0  0
    0.0000    0.0000    0.0000 H   0  0  0  0  0  0  0  0  0  0  0  0
    0.0000    0.0000    0.0000 H   0  0  0  0  0  0  0  0  0  0  0  0
    0.0000    0.0000    0.0000 H   0  0  0  0  0  0  0  0  0  0  0  0
    0.0000    0.0000    0.0000 H   0  0  0  0  0  0  0  0  0  0  0  0
    0.0000    0.0000    0.0000 H   0  0  0  0  0  0  0  0  0  0  0  0
    0.0000    0.0000    0.0000 H   0  0  0  0  0  0  0  0  0  0  0  0
    0.0000    0.0000    0.0000 H   0  0  0  0  0  0  0  0  0  0  0  0
   10.8737    5.1927   10.4950 C   0  0  0  0  0  0  0  0  0  0  0  0
    9.5556    5.3306   10.6933 N   0  0  0  0  0  0  0  0  0  0  0  0
    8.6447    4.8907    9.8047 C   0  0  0  0  0  0  0  0  0  0  0  0
    9.1361    4.2838    8.6664 C   0  0  0  0  0  0  0  0  0  0  0  0
   10.4894    4.1258    8.4315 C   0  0  0  0  0  0  0  0  0  0  0  0
   11.4057    4.5925    9.3715 C   0  0  0  0  0  0  0  0  0  0  0  0
   12.8690    4.4505    9.1728 C   0  0  0  0  0  0  0  0  0  0  0  0
    7.5746    4.9904    9.9421 H   0  0  0  0  0  0  0  0  0  0  0  0
    8.4266    3.9276    7.9484 H   0  0  0  0  0  0  0  0  0  0  0  0
   10.8773    3.6510    7.5411 H   0  0  0  0  0  0  0  0  0  0  0  0
   13.3236    5.3125    8.6541 H   0  0  0  0  0  0  0  0  0  0  0  0
   13.1118    3.5530    8.5449 H   0  0  0  0  0  0  0  0  0  0  0  0
   13.3958    4.2816   10.1364 H   0  0  0  0  0  0  0  0  0  0  0  0
  1  3  2  0
  1  4  1  0
  2  4  1  0
  1  5  1  0
  2  6  1  0
  5  6  1  0
  6  7  2  3
  5  8  1  0
  4 10  1  6
 10 11  2  0
 11 12  1  0
 12 13  2  0
 13 14  1  0
 10 15  1  0
 14 15  2  0
  9 16  2  0
  9 17  1  0
 14 18  1  0
 17 18  2  0
 18 19  1  0
 16 20  1  0
 19 20  2  0
  2 21  1  0
  7 22  1  0
  8 23  1  0
  8 24  1  0
  8 25  1  0
 11 26  1  0
 12 27  1  0
 13 28  1  0
 15 29  1  0
 16 30  1  0
 17 31  1  0
 19 32  1  0
 20 33  1  0
 34 35  2  0
 35 36  1  0
 36 37  2  0
 37 38  1  0
 38 39  2  0
 39 40  1  0
 39 34  1  0
 36 41  1  0
 37 42  1  0
 38 43  1  0
 40 44  1  0
 40 45  1  0
 40 46  1  0
  4 34  1  0
M  END
>  <attachment_point>  (245) 
21

>  <score>  (245) 
<NA>

$$$$
4djw
     RDKit          3D

 46 48  0  0  0  0  0  0  0  0999 V2000
   22.4950   11.8750   22.5810 C   0  0  0  0  0  0  0  0  0  0  0  0
   22.5380    9.4930   22.4640 N   0  0  0  0  0  0  0  0  0  0  0  0
   22.3600   13.0630   22.3480 O   0  0  0  0  0  0  0  0  0  0  0  0
   22.3390   10.6680   21.5610 C   0  0  2  0  0  0  0  0  0  0  0  0
   22.7860   11.3350   23.8120 N   0  0  0  0  0  0  0  0  0  0  0  0
   22.7800    9.9140   23.7010 C   0  0  0  0  0  0  0  0  0  0  0  0
   22.9970    9.1110   24.7490 N   0  0  0  0  0  0  0  0  0  0  0  0
   23.0220   12.1410   25.0180 C   0  0  0  0  0  0  0  0  0  0  0  0
   29.1260    9.8230   21.7090 N   0  0  0  0  0  0  0  0  0  0  0  0
   23.4880   10.6920   20.5300 C   0  0  0  0  0  0  0  0  0  0  0  0
   23.2110   10.7890   19.1730 C   0  0  0  0  0  0  0  0  0  0  0  0
   24.2350   10.8650   18.2430 C   0  0  0  0  0  0  0  0  0  0  0  0
   25.5500   10.8410   18.6560 C   0  0  0  0  0  0  0  0  0  0  0  0
   25.8710   10.7460   20.0070 C   0  0  0  0  0  0  0  0  0  0  0  0
   24.8260   10.6610   20.9430 C   0  0  0  0  0  0  0  0  0  0  0  0
   29.8540   10.9130   21.4510 C   0  0  0  0  0  0  0  0  0  0  0  0
   27.8830    9.7800   21.2080 C   0  0  0  0  0  0  0  0  0  0  0  0
   27.3000   10.8010   20.4650 C   0  0  0  0  0  0  0  0  0  0  0  0
   28.0930   11.9190   20.2200 C   0  0  0  0  0  0  0  0  0  0  0  0
   29.3850   11.9780   20.7130 C   0  0  0  0  0  0  0  0  0  0  0  0
    0.0000    0.0000    0.0000 H   0  0  0  0  0  0  0  0  0  0  0  0
    0.0000    0.0000    0.0000 H   0  0  0  0  0  0  0  0  0  0  0  0
    0.0000    0.0000    0.0000 H   0  0  0  0  0  0  0  0  0  0  0  0
    0.0000    0.0000    0.0000 H   0  0  0  0  0  0  0  0  0  0  0  0
    0.0000    0.0000    0.0000 H   0  0  0  0  0  0  0  0  0  0  0  0
    0.0000    0.0000    0.0000 H   0  0  0  0  0  0  0  0  0  0  0  0
    0.0000    0.0000    0.0000 H   0  0  0  0  0  0  0  0  0  0  0  0
    0.0000    0.0000    0.0000 H   0  0  0  0  0  0  0  0  0  0  0  0
    0.0000    0.0000    0.0000 H   0  0  0  0  0  0  0  0  0  0  0  0
    0.0000    0.0000    0.0000 H   0  0  0  0  0  0  0  0  0  0  0  0
    0.0000    0.0000    0.0000 H   0  0  0  0  0  0  0  0  0  0  0  0
    0.0000    0.0000    0.0000 H   0  0  0  0  0  0  0  0  0  0  0  0
    0.0000    0.0000    0.0000 H   0  0  0  0  0  0  0  0  0  0  0  0
   10.8989    5.2048   10.5194 C   0  0  0  0  0  0  0  0  0  0  0  0
   10.2359    6.3217    9.7517 C   0  0  0  0  0  0  0  0  0  0  0  0
   11.2658    7.1217    8.9630 C   0  0  0  0  0  0  0  0  0  0  0  0
   10.5114    8.1867    8.2501 C   0  0  0  0  0  0  0  0  0  0  0  0
   10.1231    9.2053    8.8676 O   0  0  0  0  0  0  0  0  0  0  0  0
   10.2021    8.1156    6.8953 O   0  0  0  0  0  0  0  0  0  0  0  0
   11.2896    4.4884    9.7451 H   0  0  0  0  0  0  0  0  0  0  0  0
   10.0793    4.6429   11.0288 H   0  0  0  0  0  0  0  0  0  0  0  0
    9.5538    5.8787    8.9686 H   0  0  0  0  0  0  0  0  0  0  0  0
    9.6519    6.9965   10.3696 H   0  0  0  0  0  0  0  0  0  0  0  0
   11.9729    7.6222    9.6457 H   0  0  0  0  0  0  0  0  0  0  0  0
   11.7523    6.4574    8.2349 H   0  0  0  0  0  0  0  0  0  0  0  0
    9.2919    8.4406    6.5362 H   0  0  0  0  0  0  0  0  0  0  0  0
  1  3  2  0
  1  4  1  0
  2  4  1  0
  1  5  1  0
  2  6  1  0
  5  6  1  0
  6  7  2  3
  5  8  1  0
  4 10  1  0
 10 11  2  0
 11 12  1  0
 12 13  2  0
 13 14  1  0
 10 15  1  0
 14 15  2  0
  9 16  2  0
  9 17  1  0
 14 18  1  0
 17 18  2  0
 18 19  1  0
 16 20  1  0
 19 20  2  0
  2 21  1  0
  7 22  1  0
  8 23  1  0
  8 24  1  0
  8 25  1  0
 11 26  1  0
 12 27  1  0
 13 28  1  0
 15 29  1  0
 16 30  1  0
 17 31  1  0
 19 32  1  0
 20 33  1  0
 34 35  1  0
 35 36  1  0
 36 37  1  0
 37 38  2  0
 37 39  1  0
 34 40  1  0
 34 41  1  0
 35 42  1  0
 35 43  1  0
 36 44  1  0
 36 45  1  0
 39 46  1  0
  4 34  1  6
M  END
>  <attachment_point>  (246) 
21

>  <score>  (246) 
<NA>

$$$$
4djw
     RDKit          3D

 46 49  0  0  0  0  0  0  0  0999 V2000
   22.4950   11.8750   22.5810 C   0  0  0  0  0  0  0  0  0  0  0  0
   22.5380    9.4930   22.4640 N   0  0  0  0  0  0  0  0  0  0  0  0
   22.3600   13.0630   22.3480 O   0  0  0  0  0  0  0  0  0  0  0  0
   22.3390   10.6680   21.5610 C   0  0  2  0  0  0  0  0  0  0  0  0
   22.7860   11.3350   23.8120 N   0  0  0  0  0  0  0  0  0  0  0  0
   22.7800    9.9140   23.7010 C   0  0  0  0  0  0  0  0  0  0  0  0
   22.9970    9.1110   24.7490 N   0  0  0  0  0  0  0  0  0  0  0  0
   23.0220   12.1410   25.0180 C   0  0  0  0  0  0  0  0  0  0  0  0
   29.1260    9.8230   21.7090 N   0  0  0  0  0  0  0  0  0  0  0  0
   23.4880   10.6920   20.5300 C   0  0  0  0  0  0  0  0  0  0  0  0
   23.2110   10.7890   19.1730 C   0  0  0  0  0  0  0  0  0  0  0  0
   24.2350   10.8650   18.2430 C   0  0  0  0  0  0  0  0  0  0  0  0
   25.5500   10.8410   18.6560 C   0  0  0  0  0  0  0  0  0  0  0  0
   25.8710   10.7460   20.0070 C   0  0  0  0  0  0  0  0  0  0  0  0
   24.8260   10.6610   20.9430 C   0  0  0  0  0  0  0  0  0  0  0  0
   29.8540   10.9130   21.4510 C   0  0  0  0  0  0  0  0  0  0  0  0
   27.8830    9.7800   21.2080 C   0  0  0  0  0  0  0  0  0  0  0  0
   27.3000   10.8010   20.4650 C   0  0  0  0  0  0  0  0  0  0  0  0
   28.0930   11.9190   20.2200 C   0  0  0  0  0  0  0  0  0  0  0  0
   29.3850   11.9780   20.7130 C   0  0  0  0  0  0  0  0  0  0  0  0
    0.0000    0.0000    0.0000 H   0  0  0  0  0  0  0  0  0  0  0  0
    0.0000    0.0000    0.0000 H   0  0  0  0  0  0  0  0  0  0  0  0
    0.0000    0.0000    0.0000 H   0  0  0  0  0  0  0  0  0  0  0  0
    0.0000    0.0000    0.0000 H   0  0  0  0  0  0  0  0  0  0  0  0
    0.0000    0.0000    0.0000 H   0  0  0  0  0  0  0  0  0  0  0  0
    0.0000    0.0000    0.0000 H   0  0  0  0  0  0  0  0  0  0  0  0
    0.0000    0.0000    0.0000 H   0  0  0  0  0  0  0  0  0  0  0  0
    0.0000    0.0000    0.0000 H   0  0  0  0  0  0  0  0  0  0  0  0
    0.0000    0.0000    0.0000 H   0  0  0  0  0  0  0  0  0  0  0  0
    0.0000    0.0000    0.0000 H   0  0  0  0  0  0  0  0  0  0  0  0
    0.0000    0.0000    0.0000 H   0  0  0  0  0  0  0  0  0  0  0  0
    0.0000    0.0000    0.0000 H   0  0  0  0  0  0  0  0  0  0  0  0
    0.0000    0.0000    0.0000 H   0  0  0  0  0  0  0  0  0  0  0  0
   10.8342    5.1739   10.4569 C   0  0  0  0  0  0  0  0  0  0  0  0
   11.0638    4.8609    9.1808 C   0  0  0  0  0  0  0  0  0  0  0  0
   12.3349    4.9089    8.4254 C   0  0  0  0  0  0  0  0  0  0  0  0
    9.8576    4.4677    8.6651 N   0  0  0  0  0  0  0  0  0  0  0  0
    8.9592    4.5551    9.6286 O   0  0  0  0  0  0  0  0  0  0  0  0
    9.5348    4.9874   10.7418 C   0  0  0  0  0  0  0  0  0  0  0  0
    8.8877    5.2272   12.0627 C   0  0  0  0  0  0  0  0  0  0  0  0
   12.4834    4.0083    7.7816 H   0  0  0  0  0  0  0  0  0  0  0  0
   13.1732    4.9159    9.1698 H   0  0  0  0  0  0  0  0  0  0  0  0
   12.4514    5.8441    7.8316 H   0  0  0  0  0  0  0  0  0  0  0  0
    7.7868    5.2521   12.0010 H   0  0  0  0  0  0  0  0  0  0  0  0
    9.1729    4.3720   12.7352 H   0  0  0  0  0  0  0  0  0  0  0  0
    9.2809    6.1605   12.5048 H   0  0  0  0  0  0  0  0  0  0  0  0
  1  3  2  0
  1  4  1  0
  2  4  1  0
  1  5  1  0
  2  6  1  0
  5  6  1  0
  6  7  2  3
  5  8  1  0
  4 10  1  6
 10 11  2  0
 11 12  1  0
 12 13  2  0
 13 14  1  0
 10 15  1  0
 14 15  2  0
  9 16  2  0
  9 17  1  0
 14 18  1  0
 17 18  2  0
 18 19  1  0
 16 20  1  0
 19 20  2  0
  2 21  1  0
  7 22  1  0
  8 23  1  0
  8 24  1  0
  8 25  1  0
 11 26  1  0
 12 27  1  0
 13 28  1  0
 15 29  1  0
 16 30  1  0
 17 31  1  0
 19 32  1  0
 20 33  1  0
 34 35  1  0
 35 36  1  0
 35 37  2  0
 37 38  1  0
 38 39  1  0
 39 40  1  0
 39 34  2  0
 36 41  1  0
 36 42  1  0
 36 43  1  0
 40 44  1  0
 40 45  1  0
 40 46  1  0
  4 34  1  0
M  END
>  <attachment_point>  (247) 
21

>  <score>  (247) 
<NA>

$$$$
4djw
     RDKit          3D

 53 56  0  0  0  0  0  0  0  0999 V2000
   22.4950   11.8750   22.5810 C   0  0  0  0  0  0  0  0  0  0  0  0
   22.5380    9.4930   22.4640 N   0  0  0  0  0  0  0  0  0  0  0  0
   22.3600   13.0630   22.3480 O   0  0  0  0  0  0  0  0  0  0  0  0
   22.3390   10.6680   21.5610 C   0  0  2  0  0  0  0  0  0  0  0  0
   22.7860   11.3350   23.8120 N   0  0  0  0  0  0  0  0  0  0  0  0
   22.7800    9.9140   23.7010 C   0  0  0  0  0  0  0  0  0  0  0  0
   22.9970    9.1110   24.7490 N   0  0  0  0  0  0  0  0  0  0  0  0
   23.0220   12.1410   25.0180 C   0  0  0  0  0  0  0  0  0  0  0  0
   29.1260    9.8230   21.7090 N   0  0  0  0  0  0  0  0  0  0  0  0
   23.4880   10.6920   20.5300 C   0  0  0  0  0  0  0  0  0  0  0  0
   23.2110   10.7890   19.1730 C   0  0  0  0  0  0  0  0  0  0  0  0
   24.2350   10.8650   18.2430 C   0  0  0  0  0  0  0  0  0  0  0  0
   25.5500   10.8410   18.6560 C   0  0  0  0  0  0  0  0  0  0  0  0
   25.8710   10.7460   20.0070 C   0  0  0  0  0  0  0  0  0  0  0  0
   24.8260   10.6610   20.9430 C   0  0  0  0  0  0  0  0  0  0  0  0
   29.8540   10.9130   21.4510 C   0  0  0  0  0  0  0  0  0  0  0  0
   27.8830    9.7800   21.2080 C   0  0  0  0  0  0  0  0  0  0  0  0
   27.3000   10.8010   20.4650 C   0  0  0  0  0  0  0  0  0  0  0  0
   28.0930   11.9190   20.2200 C   0  0  0  0  0  0  0  0  0  0  0  0
   29.3850   11.9780   20.7130 C   0  0  0  0  0  0  0  0  0  0  0  0
    0.0000    0.0000    0.0000 H   0  0  0  0  0  0  0  0  0  0  0  0
    0.0000    0.0000    0.0000 H   0  0  0  0  0  0  0  0  0  0  0  0
    0.0000    0.0000    0.0000 H   0  0  0  0  0  0  0  0  0  0  0  0
    0.0000    0.0000    0.0000 H   0  0  0  0  0  0  0  0  0  0  0  0
    0.0000    0.0000    0.0000 H   0  0  0  0  0  0  0  0  0  0  0  0
    0.0000    0.0000    0.0000 H   0  0  0  0  0  0  0  0  0  0  0  0
    0.0000    0.0000    0.0000 H   0  0  0  0  0  0  0  0  0  0  0  0
    0.0000    0.0000    0.0000 H   0  0  0  0  0  0  0  0  0  0  0  0
    0.0000    0.0000    0.0000 H   0  0  0  0  0  0  0  0  0  0  0  0
    0.0000    0.0000    0.0000 H   0  0  0  0  0  0  0  0  0  0  0  0
    0.0000    0.0000    0.0000 H   0  0  0  0  0  0  0  0  0  0  0  0
    0.0000    0.0000    0.0000 H   0  0  0  0  0  0  0  0  0  0  0  0
    0.0000    0.0000    0.0000 H   0  0  0  0  0  0  0  0  0  0  0  0
   10.9084    5.2093   10.5285 N   0  0  0  0  0  0  0  0  0  0  0  0
    9.7717    4.5779   11.1749 C   0  0  0  0  0  0  0  0  0  0  0  0
    9.1590    5.5378   12.1320 C   0  0  0  0  0  0  0  0  0  0  0  0
    9.6171    6.9020   12.0151 N   0  0  0  0  0  0  0  0  0  0  0  0
    9.5096    7.7280   13.1456 C   0  0  0  0  0  0  0  0  0  0  0  0
    8.9505    7.2213   14.4028 C   0  0  0  0  0  0  0  0  0  0  0  0
    9.8999    8.9091   13.0637 O   0  0  0  0  0  0  0  0  0  0  0  0
   10.1756    7.4560   10.8020 C   0  0  0  0  0  0  0  0  0  0  0  0
   10.3416    6.3565    9.8034 C   0  0  0  0  0  0  0  0  0  0  0  0
    9.0249    4.3774   10.3606 H   0  0  0  0  0  0  0  0  0  0  0  0
   10.0775    3.6433   11.6806 H   0  0  0  0  0  0  0  0  0  0  0  0
    8.0531    5.5633   12.0136 H   0  0  0  0  0  0  0  0  0  0  0  0
    9.3861    5.2041   13.1668 H   0  0  0  0  0  0  0  0  0  0  0  0
    8.0566    6.5568   14.2391 H   0  0  0  0  0  0  0  0  0  0  0  0
    9.7051    6.7132   15.0459 H   0  0  0  0  0  0  0  0  0  0  0  0
    8.5739    8.0763   14.9962 H   0  0  0  0  0  0  0  0  0  0  0  0
   11.1380    7.9969   11.0213 H   0  0  0  0  0  0  0  0  0  0  0  0
    9.4872    8.2581   10.4059 H   0  0  0  0  0  0  0  0  0  0  0  0
    9.3323    6.0932    9.4178 H   0  0  0  0  0  0  0  0  0  0  0  0
   10.9994    6.6056    8.9546 H   0  0  0  0  0  0  0  0  0  0  0  0
  1  3  2  0
  1  4  1  0
  2  4  1  0
  1  5  1  0
  2  6  1  0
  5  6  1  0
  6  7  2  3
  5  8  1  0
  4 10  1  0
 10 11  2  0
 11 12  1  0
 12 13  2  0
 13 14  1  0
 10 15  1  0
 14 15  2  0
  9 16  2  0
  9 17  1  0
 14 18  1  0
 17 18  2  0
 18 19  1  0
 16 20  1  0
 19 20  2  0
  2 21  1  0
  7 22  1  0
  8 23  1  0
  8 24  1  0
  8 25  1  0
 11 26  1  0
 12 27  1  0
 13 28  1  0
 15 29  1  0
 16 30  1  0
 17 31  1  0
 19 32  1  0
 20 33  1  0
 34 35  1  0
 35 36  1  0
 36 37  1  0
 37 38  1  0
 38 39  1  0
 38 40  2  0
 37 41  1  0
 41 42  1  0
 42 34  1  0
 35 43  1  0
 35 44  1  0
 36 45  1  0
 36 46  1  0
 39 47  1  0
 39 48  1  0
 39 49  1  0
 41 50  1  0
 41 51  1  0
 42 52  1  0
 42 53  1  0
  4 34  1  6
M  END
>  <attachment_point>  (248) 
21

>  <score>  (248) 
<NA>

$$$$
4djw
     RDKit          3D

 44 47  0  0  0  0  0  0  0  0999 V2000
   22.4950   11.8750   22.5810 C   0  0  0  0  0  0  0  0  0  0  0  0
   22.5380    9.4930   22.4640 N   0  0  0  0  0  0  0  0  0  0  0  0
   22.3600   13.0630   22.3480 O   0  0  0  0  0  0  0  0  0  0  0  0
   22.3390   10.6680   21.5610 C   0  0  2  0  0  0  0  0  0  0  0  0
   22.7860   11.3350   23.8120 N   0  0  0  0  0  0  0  0  0  0  0  0
   22.7800    9.9140   23.7010 C   0  0  0  0  0  0  0  0  0  0  0  0
   22.9970    9.1110   24.7490 N   0  0  0  0  0  0  0  0  0  0  0  0
   23.0220   12.1410   25.0180 C   0  0  0  0  0  0  0  0  0  0  0  0
   29.1260    9.8230   21.7090 N   0  0  0  0  0  0  0  0  0  0  0  0
   23.4880   10.6920   20.5300 C   0  0  0  0  0  0  0  0  0  0  0  0
   23.2110   10.7890   19.1730 C   0  0  0  0  0  0  0  0  0  0  0  0
   24.2350   10.8650   18.2430 C   0  0  0  0  0  0  0  0  0  0  0  0
   25.5500   10.8410   18.6560 C   0  0  0  0  0  0  0  0  0  0  0  0
   25.8710   10.7460   20.0070 C   0  0  0  0  0  0  0  0  0  0  0  0
   24.8260   10.6610   20.9430 C   0  0  0  0  0  0  0  0  0  0  0  0
   29.8540   10.9130   21.4510 C   0  0  0  0  0  0  0  0  0  0  0  0
   27.8830    9.7800   21.2080 C   0  0  0  0  0  0  0  0  0  0  0  0
   27.3000   10.8010   20.4650 C   0  0  0  0  0  0  0  0  0  0  0  0
   28.0930   11.9190   20.2200 C   0  0  0  0  0  0  0  0  0  0  0  0
   29.3850   11.9780   20.7130 C   0  0  0  0  0  0  0  0  0  0  0  0
    0.0000    0.0000    0.0000 H   0  0  0  0  0  0  0  0  0  0  0  0
    0.0000    0.0000    0.0000 H   0  0  0  0  0  0  0  0  0  0  0  0
    0.0000    0.0000    0.0000 H   0  0  0  0  0  0  0  0  0  0  0  0
    0.0000    0.0000    0.0000 H   0  0  0  0  0  0  0  0  0  0  0  0
    0.0000    0.0000    0.0000 H   0  0  0  0  0  0  0  0  0  0  0  0
    0.0000    0.0000    0.0000 H   0  0  0  0  0  0  0  0  0  0  0  0
    0.0000    0.0000    0.0000 H   0  0  0  0  0  0  0  0  0  0  0  0
    0.0000    0.0000    0.0000 H   0  0  0  0  0  0  0  0  0  0  0  0
    0.0000    0.0000    0.0000 H   0  0  0  0  0  0  0  0  0  0  0  0
    0.0000    0.0000    0.0000 H   0  0  0  0  0  0  0  0  0  0  0  0
    0.0000    0.0000    0.0000 H   0  0  0  0  0  0  0  0  0  0  0  0
    0.0000    0.0000    0.0000 H   0  0  0  0  0  0  0  0  0  0  0  0
    0.0000    0.0000    0.0000 H   0  0  0  0  0  0  0  0  0  0  0  0
   10.8877    5.1994   10.5085 N   0  0  0  0  0  0  0  0  0  0  0  0
   11.0643    4.4675    9.4086 C   0  0  0  0  0  0  0  0  0  0  0  0
    9.8327    4.2750    8.8356 C   0  0  0  0  0  0  0  0  0  0  0  0
    8.9226    4.9148    9.6293 N   0  0  0  0  0  0  0  0  0  0  0  0
    9.5789    5.4819   10.6578 C   0  0  0  0  0  0  0  0  0  0  0  0
    8.9152    6.2659   11.7308 C   0  0  0  0  0  0  0  0  0  0  0  0
   11.9863    4.0956    9.0342 H   0  0  0  0  0  0  0  0  0  0  0  0
    9.5447    3.7432    7.9440 H   0  0  0  0  0  0  0  0  0  0  0  0
    8.6614    5.5812   12.5574 H   0  0  0  0  0  0  0  0  0  0  0  0
    9.5308    7.1282   12.0600 H   0  0  0  0  0  0  0  0  0  0  0  0
    7.9694    6.6930   11.3426 H   0  0  0  0  0  0  0  0  0  0  0  0
  1  3  2  0
  1  4  1  0
  2  4  1  0
  1  5  1  0
  2  6  1  0
  5  6  1  0
  6  7  2  3
  5  8  1  0
  4 10  1  0
 10 11  2  0
 11 12  1  0
 12 13  2  0
 13 14  1  0
 10 15  1  0
 14 15  2  0
  9 16  2  0
  9 17  1  0
 14 18  1  0
 17 18  2  0
 18 19  1  0
 16 20  1  0
 19 20  2  0
  2 21  1  0
  7 22  1  0
  8 23  1  0
  8 24  1  0
  8 25  1  0
 11 26  1  0
 12 27  1  0
 13 28  1  0
 15 29  1  0
 16 30  1  0
 17 31  1  0
 19 32  1  0
 20 33  1  0
 34 35  1  0
 35 36  2  0
 36 37  1  0
 37 38  2  0
 38 39  1  0
 38 34  1  0
 35 40  1  0
 36 41  1  0
 39 42  1  0
 39 43  1  0
 39 44  1  0
  4 34  1  6
M  END
>  <attachment_point>  (249) 
21

>  <score>  (249) 
<NA>

$$$$
4djw
     RDKit          3D

 54 57  0  0  0  0  0  0  0  0999 V2000
   22.4950   11.8750   22.5810 C   0  0  0  0  0  0  0  0  0  0  0  0
   22.5380    9.4930   22.4640 N   0  0  0  0  0  0  0  0  0  0  0  0
   22.3600   13.0630   22.3480 O   0  0  0  0  0  0  0  0  0  0  0  0
   22.3390   10.6680   21.5610 C   0  0  2  0  0  0  0  0  0  0  0  0
   22.7860   11.3350   23.8120 N   0  0  0  0  0  0  0  0  0  0  0  0
   22.7800    9.9140   23.7010 C   0  0  0  0  0  0  0  0  0  0  0  0
   22.9970    9.1110   24.7490 N   0  0  0  0  0  0  0  0  0  0  0  0
   23.0220   12.1410   25.0180 C   0  0  0  0  0  0  0  0  0  0  0  0
   29.1260    9.8230   21.7090 N   0  0  0  0  0  0  0  0  0  0  0  0
   23.4880   10.6920   20.5300 C   0  0  0  0  0  0  0  0  0  0  0  0
   23.2110   10.7890   19.1730 C   0  0  0  0  0  0  0  0  0  0  0  0
   24.2350   10.8650   18.2430 C   0  0  0  0  0  0  0  0  0  0  0  0
   25.5500   10.8410   18.6560 C   0  0  0  0  0  0  0  0  0  0  0  0
   25.8710   10.7460   20.0070 C   0  0  0  0  0  0  0  0  0  0  0  0
   24.8260   10.6610   20.9430 C   0  0  0  0  0  0  0  0  0  0  0  0
   29.8540   10.9130   21.4510 C   0  0  0  0  0  0  0  0  0  0  0  0
   27.8830    9.7800   21.2080 C   0  0  0  0  0  0  0  0  0  0  0  0
   27.3000   10.8010   20.4650 C   0  0  0  0  0  0  0  0  0  0  0  0
   28.0930   11.9190   20.2200 C   0  0  0  0  0  0  0  0  0  0  0  0
   29.3850   11.9780   20.7130 C   0  0  0  0  0  0  0  0  0  0  0  0
    0.0000    0.0000    0.0000 H   0  0  0  0  0  0  0  0  0  0  0  0
    0.0000    0.0000    0.0000 H   0  0  0  0  0  0  0  0  0  0  0  0
    0.0000    0.0000    0.0000 H   0  0  0  0  0  0  0  0  0  0  0  0
    0.0000    0.0000    0.0000 H   0  0  0  0  0  0  0  0  0  0  0  0
    0.0000    0.0000    0.0000 H   0  0  0  0  0  0  0  0  0  0  0  0
    0.0000    0.0000    0.0000 H   0  0  0  0  0  0  0  0  0  0  0  0
    0.0000    0.0000    0.0000 H   0  0  0  0  0  0  0  0  0  0  0  0
    0.0000    0.0000    0.0000 H   0  0  0  0  0  0  0  0  0  0  0  0
    0.0000    0.0000    0.0000 H   0  0  0  0  0  0  0  0  0  0  0  0
    0.0000    0.0000    0.0000 H   0  0  0  0  0  0  0  0  0  0  0  0
    0.0000    0.0000    0.0000 H   0  0  0  0  0  0  0  0  0  0  0  0
    0.0000    0.0000    0.0000 H   0  0  0  0  0  0  0  0  0  0  0  0
    0.0000    0.0000    0.0000 H   0  0  0  0  0  0  0  0  0  0  0  0
   10.8800    5.1958   10.5011 N   0  0  0  0  0  0  0  0  0  0  0  0
   11.4261    5.6070    9.2318 C   0  0  0  0  0  0  0  0  0  0  0  0
   12.6928    4.8009    9.0630 C   0  0  0  0  0  0  0  0  0  0  0  0
   12.3484    3.4276    8.8676 N   0  0  0  0  0  0  0  0  0  0  0  0
   11.8359    3.1291    7.5593 C   0  0  0  0  0  0  0  0  0  0  0  0
   12.8943    3.2474    6.4917 C   0  0  0  0  0  0  0  0  0  0  0  0
   11.5806    2.8852    9.9447 C   0  0  0  0  0  0  0  0  0  0  0  0
   10.6339    3.8026   10.6265 C   0  0  0  0  0  0  0  0  0  0  0  0
   10.7192    5.4849    8.4024 H   0  0  0  0  0  0  0  0  0  0  0  0
   11.7380    6.6598    9.3301 H   0  0  0  0  0  0  0  0  0  0  0  0
   13.2159    4.8590   10.0560 H   0  0  0  0  0  0  0  0  0  0  0  0
   13.3503    5.1651    8.2646 H   0  0  0  0  0  0  0  0  0  0  0  0
   11.4869    2.0543    7.6077 H   0  0  0  0  0  0  0  0  0  0  0  0
   10.9682    3.7495    7.3658 H   0  0  0  0  0  0  0  0  0  0  0  0
   13.9231    3.1978    6.9205 H   0  0  0  0  0  0  0  0  0  0  0  0
   12.7140    4.2094    5.9546 H   0  0  0  0  0  0  0  0  0  0  0  0
   12.7078    2.4430    5.7524 H   0  0  0  0  0  0  0  0  0  0  0  0
   11.0017    2.0190    9.5246 H   0  0  0  0  0  0  0  0  0  0  0  0
   12.2956    2.4100   10.6655 H   0  0  0  0  0  0  0  0  0  0  0  0
   10.6561    3.5588   11.7216 H   0  0  0  0  0  0  0  0  0  0  0  0
    9.5817    3.6132   10.3139 H   0  0  0  0  0  0  0  0  0  0  0  0
  1  3  2  0
  1  4  1  0
  2  4  1  0
  1  5  1  0
  2  6  1  0
  5  6  1  0
  6  7  2  3
  5  8  1  0
  4 10  1  0
 10 11  2  0
 11 12  1  0
 12 13  2  0
 13 14  1  0
 10 15  1  0
 14 15  2  0
  9 16  2  0
  9 17  1  0
 14 18  1  0
 17 18  2  0
 18 19  1  0
 16 20  1  0
 19 20  2  0
  2 21  1  0
  7 22  1  0
  8 23  1  0
  8 24  1  0
  8 25  1  0
 11 26  1  0
 12 27  1  0
 13 28  1  0
 15 29  1  0
 16 30  1  0
 17 31  1  0
 19 32  1  0
 20 33  1  0
 34 35  1  0
 35 36  1  0
 36 37  1  0
 37 38  1  0
 38 39  1  0
 37 40  1  0
 40 41  1  0
 41 34  1  0
 35 42  1  0
 35 43  1  0
 36 44  1  0
 36 45  1  0
 38 46  1  0
 38 47  1  0
 39 48  1  0
 39 49  1  0
 39 50  1  0
 40 51  1  0
 40 52  1  0
 41 53  1  0
 41 54  1  0
  4 34  1  6
M  END
>  <attachment_point>  (250) 
21

>  <score>  (250) 
<NA>

$$$$
4djw
     RDKit          3D

 58 63  0  0  0  0  0  0  0  0999 V2000
   22.4950   11.8750   22.5810 C   0  0  0  0  0  0  0  0  0  0  0  0
   22.5380    9.4930   22.4640 N   0  0  0  0  0  0  0  0  0  0  0  0
   22.3600   13.0630   22.3480 O   0  0  0  0  0  0  0  0  0  0  0  0
   22.3390   10.6680   21.5610 C   0  0  2  0  0  0  0  0  0  0  0  0
   22.7860   11.3350   23.8120 N   0  0  0  0  0  0  0  0  0  0  0  0
   22.7800    9.9140   23.7010 C   0  0  0  0  0  0  0  0  0  0  0  0
   22.9970    9.1110   24.7490 N   0  0  0  0  0  0  0  0  0  0  0  0
   23.0220   12.1410   25.0180 C   0  0  0  0  0  0  0  0  0  0  0  0
   29.1260    9.8230   21.7090 N   0  0  0  0  0  0  0  0  0  0  0  0
   23.4880   10.6920   20.5300 C   0  0  0  0  0  0  0  0  0  0  0  0
   23.2110   10.7890   19.1730 C   0  0  0  0  0  0  0  0  0  0  0  0
   24.2350   10.8650   18.2430 C   0  0  0  0  0  0  0  0  0  0  0  0
   25.5500   10.8410   18.6560 C   0  0  0  0  0  0  0  0  0  0  0  0
   25.8710   10.7460   20.0070 C   0  0  0  0  0  0  0  0  0  0  0  0
   24.8260   10.6610   20.9430 C   0  0  0  0  0  0  0  0  0  0  0  0
   29.8540   10.9130   21.4510 C   0  0  0  0  0  0  0  0  0  0  0  0
   27.8830    9.7800   21.2080 C   0  0  0  0  0  0  0  0  0  0  0  0
   27.3000   10.8010   20.4650 C   0  0  0  0  0  0  0  0  0  0  0  0
   28.0930   11.9190   20.2200 C   0  0  0  0  0  0  0  0  0  0  0  0
   29.3850   11.9780   20.7130 C   0  0  0  0  0  0  0  0  0  0  0  0
    0.0000    0.0000    0.0000 H   0  0  0  0  0  0  0  0  0  0  0  0
    0.0000    0.0000    0.0000 H   0  0  0  0  0  0  0  0  0  0  0  0
    0.0000    0.0000    0.0000 H   0  0  0  0  0  0  0  0  0  0  0  0
    0.0000    0.0000    0.0000 H   0  0  0  0  0  0  0  0  0  0  0  0
    0.0000    0.0000    0.0000 H   0  0  0  0  0  0  0  0  0  0  0  0
    0.0000    0.0000    0.0000 H   0  0  0  0  0  0  0  0  0  0  0  0
    0.0000    0.0000    0.0000 H   0  0  0  0  0  0  0  0  0  0  0  0
    0.0000    0.0000    0.0000 H   0  0  0  0  0  0  0  0  0  0  0  0
    0.0000    0.0000    0.0000 H   0  0  0  0  0  0  0  0  0  0  0  0
    0.0000    0.0000    0.0000 H   0  0  0  0  0  0  0  0  0  0  0  0
    0.0000    0.0000    0.0000 H   0  0  0  0  0  0  0  0  0  0  0  0
    0.0000    0.0000    0.0000 H   0  0  0  0  0  0  0  0  0  0  0  0
    0.0000    0.0000    0.0000 H   0  0  0  0  0  0  0  0  0  0  0  0
   10.8824    5.1969   10.5034 C   0  0  2  0  0  0  0  0  0  0  0  0
    9.7772    4.4229   11.1814 C   0  0  0  0  0  0  0  0  0  0  0  0
    8.7183    4.0553   10.1843 C   0  0  1  0  0  0  0  0  0  0  0  0
    8.2146    5.3180    9.5299 C   0  0  0  0  0  0  0  0  0  0  0  0
    9.3177    5.9801    8.7530 C   0  0  2  0  0  0  0  0  0  0  0  0
    9.9893    5.0747    7.7678 C   0  0  0  0  0  0  0  0  0  0  0  0
   10.4823    3.8250    8.4866 C   0  0  2  0  0  0  0  0  0  0  0  0
    9.2793    3.1705    9.1026 C   0  0  0  0  0  0  0  0  0  0  0  0
   11.5146    4.2500    9.4892 C   0  0  0  0  0  0  0  0  0  0  0  0
   10.3765    6.4094    9.7650 C   0  0  0  0  0  0  0  0  0  0  0  0
   10.2452    3.4546   11.5193 H   0  0  0  0  0  0  0  0  0  0  0  0
    9.3606    4.9215   12.0609 H   0  0  0  0  0  0  0  0  0  0  0  0
    7.8848    3.5589   10.7124 H   0  0  0  0  0  0  0  0  0  0  0  0
    7.2840    5.1814    8.9630 H   0  0  0  0  0  0  0  0  0  0  0  0
    7.9539    6.0182   10.3741 H   0  0  0  0  0  0  0  0  0  0  0  0
    8.9228    6.8647    8.2224 H   0  0  0  0  0  0  0  0  0  0  0  0
   10.9037    5.5933    7.4043 H   0  0  0  0  0  0  0  0  0  0  0  0
    9.3392    4.8354    6.9085 H   0  0  0  0  0  0  0  0  0  0  0  0
   10.9544    3.1113    7.7967 H   0  0  0  0  0  0  0  0  0  0  0  0
    9.4497    2.1336    9.4161 H   0  0  0  0  0  0  0  0  0  0  0  0
    8.4943    3.1426    8.2895 H   0  0  0  0  0  0  0  0  0  0  0  0
   11.9779    3.4070   10.0240 H   0  0  0  0  0  0  0  0  0  0  0  0
   12.2693    4.8613    8.9403 H   0  0  0  0  0  0  0  0  0  0  0  0
    9.9820    7.1666   10.4608 H   0  0  0  0  0  0  0  0  0  0  0  0
   11.2358    6.7852    9.1522 H   0  0  0  0  0  0  0  0  0  0  0  0
  1  3  2  0
  1  4  1  0
  2  4  1  0
  1  5  1  0
  2  6  1  0
  5  6  1  0
  6  7  2  3
  5  8  1  0
  4 10  1  6
 10 11  2  0
 11 12  1  0
 12 13  2  0
 13 14  1  0
 10 15  1  0
 14 15  2  0
  9 16  2  0
  9 17  1  0
 14 18  1  0
 17 18  2  0
 18 19  1  0
 16 20  1  0
 19 20  2  0
  2 21  1  0
  7 22  1  0
  8 23  1  0
  8 24  1  0
  8 25  1  0
 11 26  1  0
 12 27  1  0
 13 28  1  0
 15 29  1  0
 16 30  1  0
 17 31  1  0
 19 32  1  0
 20 33  1  0
 34 35  1  6
 35 36  1  0
 36 37  1  0
 37 38  1  0
 38 39  1  0
 39 40  1  0
 40 41  1  0
 40 42  1  0
 38 43  1  0
 42 34  1  0
 43 34  1  0
 41 36  1  0
 35 44  1  0
 35 45  1  0
 36 46  1  1
 37 47  1  0
 37 48  1  0
 38 49  1  6
 39 50  1  0
 39 51  1  0
 40 52  1  6
 41 53  1  0
 41 54  1  0
 42 55  1  0
 42 56  1  0
 43 57  1  0
 43 58  1  0
  4 34  1  0
M  END
>  <attachment_point>  (251) 
21

>  <score>  (251) 
<NA>

$$$$
4djw
     RDKit          3D

 43 45  0  0  0  0  0  0  0  0999 V2000
   22.4950   11.8750   22.5810 C   0  0  0  0  0  0  0  0  0  0  0  0
   22.5380    9.4930   22.4640 N   0  0  0  0  0  0  0  0  0  0  0  0
   22.3600   13.0630   22.3480 O   0  0  0  0  0  0  0  0  0  0  0  0
   22.3390   10.6680   21.5610 C   0  0  2  0  0  0  0  0  0  0  0  0
   22.7860   11.3350   23.8120 N   0  0  0  0  0  0  0  0  0  0  0  0
   22.7800    9.9140   23.7010 C   0  0  0  0  0  0  0  0  0  0  0  0
   22.9970    9.1110   24.7490 N   0  0  0  0  0  0  0  0  0  0  0  0
   23.0220   12.1410   25.0180 C   0  0  0  0  0  0  0  0  0  0  0  0
   29.1260    9.8230   21.7090 N   0  0  0  0  0  0  0  0  0  0  0  0
   23.4880   10.6920   20.5300 C   0  0  0  0  0  0  0  0  0  0  0  0
   23.2110   10.7890   19.1730 C   0  0  0  0  0  0  0  0  0  0  0  0
   24.2350   10.8650   18.2430 C   0  0  0  0  0  0  0  0  0  0  0  0
   25.5500   10.8410   18.6560 C   0  0  0  0  0  0  0  0  0  0  0  0
   25.8710   10.7460   20.0070 C   0  0  0  0  0  0  0  0  0  0  0  0
   24.8260   10.6610   20.9430 C   0  0  0  0  0  0  0  0  0  0  0  0
   29.8540   10.9130   21.4510 C   0  0  0  0  0  0  0  0  0  0  0  0
   27.8830    9.7800   21.2080 C   0  0  0  0  0  0  0  0  0  0  0  0
   27.3000   10.8010   20.4650 C   0  0  0  0  0  0  0  0  0  0  0  0
   28.0930   11.9190   20.2200 C   0  0  0  0  0  0  0  0  0  0  0  0
   29.3850   11.9780   20.7130 C   0  0  0  0  0  0  0  0  0  0  0  0
    0.0000    0.0000    0.0000 H   0  0  0  0  0  0  0  0  0  0  0  0
    0.0000    0.0000    0.0000 H   0  0  0  0  0  0  0  0  0  0  0  0
    0.0000    0.0000    0.0000 H   0  0  0  0  0  0  0  0  0  0  0  0
    0.0000    0.0000    0.0000 H   0  0  0  0  0  0  0  0  0  0  0  0
    0.0000    0.0000    0.0000 H   0  0  0  0  0  0  0  0  0  0  0  0
    0.0000    0.0000    0.0000 H   0  0  0  0  0  0  0  0  0  0  0  0
    0.0000    0.0000    0.0000 H   0  0  0  0  0  0  0  0  0  0  0  0
    0.0000    0.0000    0.0000 H   0  0  0  0  0  0  0  0  0  0  0  0
    0.0000    0.0000    0.0000 H   0  0  0  0  0  0  0  0  0  0  0  0
    0.0000    0.0000    0.0000 H   0  0  0  0  0  0  0  0  0  0  0  0
    0.0000    0.0000    0.0000 H   0  0  0  0  0  0  0  0  0  0  0  0
    0.0000    0.0000    0.0000 H   0  0  0  0  0  0  0  0  0  0  0  0
    0.0000    0.0000    0.0000 H   0  0  0  0  0  0  0  0  0  0  0  0
   10.8593    5.1859   10.4811 C   0  0  1  0  0  0  0  0  0  0  0  0
   11.1649    3.7522   10.1434 C   0  0  0  0  0  0  0  0  0  0  0  0
    9.5018    5.3685   11.0327 C   0  0  0  0  0  0  0  0  0  0  0  0
    8.6514    6.1217   10.4495 O   0  0  0  0  0  0  0  0  0  0  0  0
    9.0488    4.7581   12.1926 O   0  0  0  0  0  0  0  0  0  0  0  0
   10.9910    5.8782    9.6456 H   0  0  0  0  0  0  0  0  0  0  0  0
   12.0082    3.3507   10.7685 H   0  0  0  0  0  0  0  0  0  0  0  0
   11.4698    3.6913    9.0868 H   0  0  0  0  0  0  0  0  0  0  0  0
   10.2721    3.1502   10.3122 H   0  0  0  0  0  0  0  0  0  0  0  0
    8.5235    5.2710   12.8921 H   0  0  0  0  0  0  0  0  0  0  0  0
  1  3  2  0
  1  4  1  0
  2  4  1  0
  1  5  1  0
  2  6  1  0
  5  6  1  0
  6  7  2  3
  5  8  1  0
  4 10  1  6
 10 11  2  0
 11 12  1  0
 12 13  2  0
 13 14  1  0
 10 15  1  0
 14 15  2  0
  9 16  2  0
  9 17  1  0
 14 18  1  0
 17 18  2  0
 18 19  1  0
 16 20  1  0
 19 20  2  0
  2 21  1  0
  7 22  1  0
  8 23  1  0
  8 24  1  0
  8 25  1  0
 11 26  1  0
 12 27  1  0
 13 28  1  0
 15 29  1  0
 16 30  1  0
 17 31  1  0
 19 32  1  0
 20 33  1  0
 34 35  1  0
 34 36  1  0
 36 37  2  0
 36 38  1  0
 34 39  1  1
 35 40  1  0
 35 41  1  0
 35 42  1  0
 38 43  1  0
  4 34  1  0
M  END
>  <attachment_point>  (252) 
21

>  <score>  (252) 
<NA>

$$$$
4djw
     RDKit          3D

 44 47  0  0  0  0  0  0  0  0999 V2000
   22.4950   11.8750   22.5810 C   0  0  0  0  0  0  0  0  0  0  0  0
   22.5380    9.4930   22.4640 N   0  0  0  0  0  0  0  0  0  0  0  0
   22.3600   13.0630   22.3480 O   0  0  0  0  0  0  0  0  0  0  0  0
   22.3390   10.6680   21.5610 C   0  0  2  0  0  0  0  0  0  0  0  0
   22.7860   11.3350   23.8120 N   0  0  0  0  0  0  0  0  0  0  0  0
   22.7800    9.9140   23.7010 C   0  0  0  0  0  0  0  0  0  0  0  0
   22.9970    9.1110   24.7490 N   0  0  0  0  0  0  0  0  0  0  0  0
   23.0220   12.1410   25.0180 C   0  0  0  0  0  0  0  0  0  0  0  0
   29.1260    9.8230   21.7090 N   0  0  0  0  0  0  0  0  0  0  0  0
   23.4880   10.6920   20.5300 C   0  0  0  0  0  0  0  0  0  0  0  0
   23.2110   10.7890   19.1730 C   0  0  0  0  0  0  0  0  0  0  0  0
   24.2350   10.8650   18.2430 C   0  0  0  0  0  0  0  0  0  0  0  0
   25.5500   10.8410   18.6560 C   0  0  0  0  0  0  0  0  0  0  0  0
   25.8710   10.7460   20.0070 C   0  0  0  0  0  0  0  0  0  0  0  0
   24.8260   10.6610   20.9430 C   0  0  0  0  0  0  0  0  0  0  0  0
   29.8540   10.9130   21.4510 C   0  0  0  0  0  0  0  0  0  0  0  0
   27.8830    9.7800   21.2080 C   0  0  0  0  0  0  0  0  0  0  0  0
   27.3000   10.8010   20.4650 C   0  0  0  0  0  0  0  0  0  0  0  0
   28.0930   11.9190   20.2200 C   0  0  0  0  0  0  0  0  0  0  0  0
   29.3850   11.9780   20.7130 C   0  0  0  0  0  0  0  0  0  0  0  0
    0.0000    0.0000    0.0000 H   0  0  0  0  0  0  0  0  0  0  0  0
    0.0000    0.0000    0.0000 H   0  0  0  0  0  0  0  0  0  0  0  0
    0.0000    0.0000    0.0000 H   0  0  0  0  0  0  0  0  0  0  0  0
    0.0000    0.0000    0.0000 H   0  0  0  0  0  0  0  0  0  0  0  0
    0.0000    0.0000    0.0000 H   0  0  0  0  0  0  0  0  0  0  0  0
    0.0000    0.0000    0.0000 H   0  0  0  0  0  0  0  0  0  0  0  0
    0.0000    0.0000    0.0000 H   0  0  0  0  0  0  0  0  0  0  0  0
    0.0000    0.0000    0.0000 H   0  0  0  0  0  0  0  0  0  0  0  0
    0.0000    0.0000    0.0000 H   0  0  0  0  0  0  0  0  0  0  0  0
    0.0000    0.0000    0.0000 H   0  0  0  0  0  0  0  0  0  0  0  0
    0.0000    0.0000    0.0000 H   0  0  0  0  0  0  0  0  0  0  0  0
    0.0000    0.0000    0.0000 H   0  0  0  0  0  0  0  0  0  0  0  0
    0.0000    0.0000    0.0000 H   0  0  0  0  0  0  0  0  0  0  0  0
   10.8624    5.1874   10.4841 C   0  0  0  0  0  0  0  0  0  0  0  0
   11.2798    4.5207    9.3490 C   0  0  0  0  0  0  0  0  0  0  0  0
   10.2883    4.0996    8.4846 C   0  0  0  0  0  0  0  0  0  0  0  0
   10.6623    3.4342    7.3469 F   0  0  0  0  0  0  0  0  0  0  0  0
    8.9503    4.3323    8.7412 C   0  0  0  0  0  0  0  0  0  0  0  0
    8.5524    5.0006    9.8814 C   0  0  0  0  0  0  0  0  0  0  0  0
    7.2350    5.2328   10.1392 F   0  0  0  0  0  0  0  0  0  0  0  0
    9.5304    5.4277   10.7547 C   0  0  0  0  0  0  0  0  0  0  0  0
   12.3293    4.3411    9.1530 H   0  0  0  0  0  0  0  0  0  0  0  0
    8.1711    4.0011    8.0615 H   0  0  0  0  0  0  0  0  0  0  0  0
    9.2215    5.9608   11.6653 H   0  0  0  0  0  0  0  0  0  0  0  0
  1  3  2  0
  1  4  1  0
  2  4  1  0
  1  5  1  0
  2  6  1  0
  5  6  1  0
  6  7  2  3
  5  8  1  0
  4 10  1  6
 10 11  2  0
 11 12  1  0
 12 13  2  0
 13 14  1  0
 10 15  1  0
 14 15  2  0
  9 16  2  0
  9 17  1  0
 14 18  1  0
 17 18  2  0
 18 19  1  0
 16 20  1  0
 19 20  2  0
  2 21  1  0
  7 22  1  0
  8 23  1  0
  8 24  1  0
  8 25  1  0
 11 26  1  0
 12 27  1  0
 13 28  1  0
 15 29  1  0
 16 30  1  0
 17 31  1  0
 19 32  1  0
 20 33  1  0
 34 35  2  0
 35 36  1  0
 36 37  1  0
 36 38  2  0
 38 39  1  0
 39 40  1  0
 39 41  2  0
 41 34  1  0
 35 42  1  0
 38 43  1  0
 41 44  1  0
  4 34  1  0
M  END
>  <attachment_point>  (253) 
21

>  <score>  (253) 
<NA>

$$$$
4djw
     RDKit          3D

 47 50  0  0  0  0  0  0  0  0999 V2000
   22.4950   11.8750   22.5810 C   0  0  0  0  0  0  0  0  0  0  0  0
   22.5380    9.4930   22.4640 N   0  0  0  0  0  0  0  0  0  0  0  0
   22.3600   13.0630   22.3480 O   0  0  0  0  0  0  0  0  0  0  0  0
   22.3390   10.6680   21.5610 C   0  0  2  0  0  0  0  0  0  0  0  0
   22.7860   11.3350   23.8120 N   0  0  0  0  0  0  0  0  0  0  0  0
   22.7800    9.9140   23.7010 C   0  0  0  0  0  0  0  0  0  0  0  0
   22.9970    9.1110   24.7490 N   0  0  0  0  0  0  0  0  0  0  0  0
   23.0220   12.1410   25.0180 C   0  0  0  0  0  0  0  0  0  0  0  0
   29.1260    9.8230   21.7090 N   0  0  0  0  0  0  0  0  0  0  0  0
   23.4880   10.6920   20.5300 C   0  0  0  0  0  0  0  0  0  0  0  0
   23.2110   10.7890   19.1730 C   0  0  0  0  0  0  0  0  0  0  0  0
   24.2350   10.8650   18.2430 C   0  0  0  0  0  0  0  0  0  0  0  0
   25.5500   10.8410   18.6560 C   0  0  0  0  0  0  0  0  0  0  0  0
   25.8710   10.7460   20.0070 C   0  0  0  0  0  0  0  0  0  0  0  0
   24.8260   10.6610   20.9430 C   0  0  0  0  0  0  0  0  0  0  0  0
   29.8540   10.9130   21.4510 C   0  0  0  0  0  0  0  0  0  0  0  0
   27.8830    9.7800   21.2080 C   0  0  0  0  0  0  0  0  0  0  0  0
   27.3000   10.8010   20.4650 C   0  0  0  0  0  0  0  0  0  0  0  0
   28.0930   11.9190   20.2200 C   0  0  0  0  0  0  0  0  0  0  0  0
   29.3850   11.9780   20.7130 C   0  0  0  0  0  0  0  0  0  0  0  0
    0.0000    0.0000    0.0000 H   0  0  0  0  0  0  0  0  0  0  0  0
    0.0000    0.0000    0.0000 H   0  0  0  0  0  0  0  0  0  0  0  0
    0.0000    0.0000    0.0000 H   0  0  0  0  0  0  0  0  0  0  0  0
    0.0000    0.0000    0.0000 H   0  0  0  0  0  0  0  0  0  0  0  0
    0.0000    0.0000    0.0000 H   0  0  0  0  0  0  0  0  0  0  0  0
    0.0000    0.0000    0.0000 H   0  0  0  0  0  0  0  0  0  0  0  0
    0.0000    0.0000    0.0000 H   0  0  0  0  0  0  0  0  0  0  0  0
    0.0000    0.0000    0.0000 H   0  0  0  0  0  0  0  0  0  0  0  0
    0.0000    0.0000    0.0000 H   0  0  0  0  0  0  0  0  0  0  0  0
    0.0000    0.0000    0.0000 H   0  0  0  0  0  0  0  0  0  0  0  0
    0.0000    0.0000    0.0000 H   0  0  0  0  0  0  0  0  0  0  0  0
    0.0000    0.0000    0.0000 H   0  0  0  0  0  0  0  0  0  0  0  0
    0.0000    0.0000    0.0000 H   0  0  0  0  0  0  0  0  0  0  0  0
   10.8756    5.1936   10.4968 C   0  0  0  0  0  0  0  0  0  0  0  0
   11.3995    5.3229    9.1106 C   0  0  0  0  0  0  0  0  0  0  0  0
   11.2049    6.4739    8.3594 C   0  0  0  0  0  0  0  0  0  0  0  0
   11.6950    6.5886    7.0694 C   0  0  0  0  0  0  0  0  0  0  0  0
   12.3971    5.5676    6.4729 C   0  0  0  0  0  0  0  0  0  0  0  0
   12.5954    4.4205    7.2109 C   0  0  0  0  0  0  0  0  0  0  0  0
   13.4952    3.0926    6.4668 Cl  0  0  0  0  0  0  0  0  0  0  0  0
   12.1057    4.3049    8.5011 C   0  0  0  0  0  0  0  0  0  0  0  0
   10.5109    4.1810   10.7283 H   0  0  0  0  0  0  0  0  0  0  0  0
    9.9944    5.8809   10.6313 H   0  0  0  0  0  0  0  0  0  0  0  0
   10.6492    7.2726    8.8417 H   0  0  0  0  0  0  0  0  0  0  0  0
   11.5281    7.4981    6.5072 H   0  0  0  0  0  0  0  0  0  0  0  0
   12.7954    5.6194    5.4681 H   0  0  0  0  0  0  0  0  0  0  0  0
   12.2681    3.3976    9.0716 H   0  0  0  0  0  0  0  0  0  0  0  0
  1  3  2  0
  1  4  1  0
  2  4  1  0
  1  5  1  0
  2  6  1  0
  5  6  1  0
  6  7  2  3
  5  8  1  0
  4 10  1  0
 10 11  2  0
 11 12  1  0
 12 13  2  0
 13 14  1  0
 10 15  1  0
 14 15  2  0
  9 16  2  0
  9 17  1  0
 14 18  1  0
 17 18  2  0
 18 19  1  0
 16 20  1  0
 19 20  2  0
  2 21  1  0
  7 22  1  0
  8 23  1  0
  8 24  1  0
  8 25  1  0
 11 26  1  0
 12 27  1  0
 13 28  1  0
 15 29  1  0
 16 30  1  0
 17 31  1  0
 19 32  1  0
 20 33  1  0
 34 35  1  0
 35 36  2  0
 36 37  1  0
 37 38  2  0
 38 39  1  0
 39 40  1  0
 39 41  2  0
 41 35  1  0
 34 42  1  0
 34 43  1  0
 36 44  1  0
 37 45  1  0
 38 46  1  0
 41 47  1  0
  4 34  1  6
M  END
>  <attachment_point>  (254) 
21

>  <score>  (254) 
<NA>

$$$$
4djw
     RDKit          3D

 44 47  0  0  0  0  0  0  0  0999 V2000
   22.4950   11.8750   22.5810 C   0  0  0  0  0  0  0  0  0  0  0  0
   22.5380    9.4930   22.4640 N   0  0  0  0  0  0  0  0  0  0  0  0
   22.3600   13.0630   22.3480 O   0  0  0  0  0  0  0  0  0  0  0  0
   22.3390   10.6680   21.5610 C   0  0  2  0  0  0  0  0  0  0  0  0
   22.7860   11.3350   23.8120 N   0  0  0  0  0  0  0  0  0  0  0  0
   22.7800    9.9140   23.7010 C   0  0  0  0  0  0  0  0  0  0  0  0
   22.9970    9.1110   24.7490 N   0  0  0  0  0  0  0  0  0  0  0  0
   23.0220   12.1410   25.0180 C   0  0  0  0  0  0  0  0  0  0  0  0
   29.1260    9.8230   21.7090 N   0  0  0  0  0  0  0  0  0  0  0  0
   23.4880   10.6920   20.5300 C   0  0  0  0  0  0  0  0  0  0  0  0
   23.2110   10.7890   19.1730 C   0  0  0  0  0  0  0  0  0  0  0  0
   24.2350   10.8650   18.2430 C   0  0  0  0  0  0  0  0  0  0  0  0
   25.5500   10.8410   18.6560 C   0  0  0  0  0  0  0  0  0  0  0  0
   25.8710   10.7460   20.0070 C   0  0  0  0  0  0  0  0  0  0  0  0
   24.8260   10.6610   20.9430 C   0  0  0  0  0  0  0  0  0  0  0  0
   29.8540   10.9130   21.4510 C   0  0  0  0  0  0  0  0  0  0  0  0
   27.8830    9.7800   21.2080 C   0  0  0  0  0  0  0  0  0  0  0  0
   27.3000   10.8010   20.4650 C   0  0  0  0  0  0  0  0  0  0  0  0
   28.0930   11.9190   20.2200 C   0  0  0  0  0  0  0  0  0  0  0  0
   29.3850   11.9780   20.7130 C   0  0  0  0  0  0  0  0  0  0  0  0
    0.0000    0.0000    0.0000 H   0  0  0  0  0  0  0  0  0  0  0  0
    0.0000    0.0000    0.0000 H   0  0  0  0  0  0  0  0  0  0  0  0
    0.0000    0.0000    0.0000 H   0  0  0  0  0  0  0  0  0  0  0  0
    0.0000    0.0000    0.0000 H   0  0  0  0  0  0  0  0  0  0  0  0
    0.0000    0.0000    0.0000 H   0  0  0  0  0  0  0  0  0  0  0  0
    0.0000    0.0000    0.0000 H   0  0  0  0  0  0  0  0  0  0  0  0
    0.0000    0.0000    0.0000 H   0  0  0  0  0  0  0  0  0  0  0  0
    0.0000    0.0000    0.0000 H   0  0  0  0  0  0  0  0  0  0  0  0
    0.0000    0.0000    0.0000 H   0  0  0  0  0  0  0  0  0  0  0  0
    0.0000    0.0000    0.0000 H   0  0  0  0  0  0  0  0  0  0  0  0
    0.0000    0.0000    0.0000 H   0  0  0  0  0  0  0  0  0  0  0  0
    0.0000    0.0000    0.0000 H   0  0  0  0  0  0  0  0  0  0  0  0
    0.0000    0.0000    0.0000 H   0  0  0  0  0  0  0  0  0  0  0  0
   10.8123    5.1634   10.4358 C   0  0  0  0  0  0  0  0  0  0  0  0
    9.5501    5.0705   10.8525 C   0  0  0  0  0  0  0  0  0  0  0  0
    8.5896    4.6103    9.9210 C   0  0  0  0  0  0  0  0  0  0  0  0
    9.0046    4.2872    8.6501 C   0  0  0  0  0  0  0  0  0  0  0  0
    8.0903    3.8364    7.7221 F   0  0  0  0  0  0  0  0  0  0  0  0
   10.3240    4.4008    8.2669 C   0  0  0  0  0  0  0  0  0  0  0  0
   10.7309    4.0889    7.0366 F   0  0  0  0  0  0  0  0  0  0  0  0
   11.2657    4.8637    9.2182 C   0  0  0  0  0  0  0  0  0  0  0  0
    9.2618    5.3325   11.8559 H   0  0  0  0  0  0  0  0  0  0  0  0
    7.5659    4.5291   10.2402 H   0  0  0  0  0  0  0  0  0  0  0  0
   12.2971    4.9492    8.9079 H   0  0  0  0  0  0  0  0  0  0  0  0
  1  3  2  0
  1  4  1  0
  2  4  1  0
  1  5  1  0
  2  6  1  0
  5  6  1  0
  6  7  2  3
  5  8  1  0
  4 10  1  6
 10 11  2  0
 11 12  1  0
 12 13  2  0
 13 14  1  0
 10 15  1  0
 14 15  2  0
  9 16  2  0
  9 17  1  0
 14 18  1  0
 17 18  2  0
 18 19  1  0
 16 20  1  0
 19 20  2  0
  2 21  1  0
  7 22  1  0
  8 23  1  0
  8 24  1  0
  8 25  1  0
 11 26  1  0
 12 27  1  0
 13 28  1  0
 15 29  1  0
 16 30  1  0
 17 31  1  0
 19 32  1  0
 20 33  1  0
 34 35  2  0
 35 36  1  0
 36 37  2  0
 37 38  1  0
 37 39  1  0
 39 40  1  0
 39 41  2  0
 41 34  1  0
 35 42  1  0
 36 43  1  0
 41 44  1  0
  4 34  1  0
M  END
>  <attachment_point>  (255) 
21

>  <score>  (255) 
<NA>

$$$$
4djw
     RDKit          3D

 50 53  0  0  0  0  0  0  0  0999 V2000
   22.4950   11.8750   22.5810 C   0  0  0  0  0  0  0  0  0  0  0  0
   22.5380    9.4930   22.4640 N   0  0  0  0  0  0  0  0  0  0  0  0
   22.3600   13.0630   22.3480 O   0  0  0  0  0  0  0  0  0  0  0  0
   22.3390   10.6680   21.5610 C   0  0  2  0  0  0  0  0  0  0  0  0
   22.7860   11.3350   23.8120 N   0  0  0  0  0  0  0  0  0  0  0  0
   22.7800    9.9140   23.7010 C   0  0  0  0  0  0  0  0  0  0  0  0
   22.9970    9.1110   24.7490 N   0  0  0  0  0  0  0  0  0  0  0  0
   23.0220   12.1410   25.0180 C   0  0  0  0  0  0  0  0  0  0  0  0
   29.1260    9.8230   21.7090 N   0  0  0  0  0  0  0  0  0  0  0  0
   23.4880   10.6920   20.5300 C   0  0  0  0  0  0  0  0  0  0  0  0
   23.2110   10.7890   19.1730 C   0  0  0  0  0  0  0  0  0  0  0  0
   24.2350   10.8650   18.2430 C   0  0  0  0  0  0  0  0  0  0  0  0
   25.5500   10.8410   18.6560 C   0  0  0  0  0  0  0  0  0  0  0  0
   25.8710   10.7460   20.0070 C   0  0  0  0  0  0  0  0  0  0  0  0
   24.8260   10.6610   20.9430 C   0  0  0  0  0  0  0  0  0  0  0  0
   29.8540   10.9130   21.4510 C   0  0  0  0  0  0  0  0  0  0  0  0
   27.8830    9.7800   21.2080 C   0  0  0  0  0  0  0  0  0  0  0  0
   27.3000   10.8010   20.4650 C   0  0  0  0  0  0  0  0  0  0  0  0
   28.0930   11.9190   20.2200 C   0  0  0  0  0  0  0  0  0  0  0  0
   29.3850   11.9780   20.7130 C   0  0  0  0  0  0  0  0  0  0  0  0
    0.0000    0.0000    0.0000 H   0  0  0  0  0  0  0  0  0  0  0  0
    0.0000    0.0000    0.0000 H   0  0  0  0  0  0  0  0  0  0  0  0
    0.0000    0.0000    0.0000 H   0  0  0  0  0  0  0  0  0  0  0  0
    0.0000    0.0000    0.0000 H   0  0  0  0  0  0  0  0  0  0  0  0
    0.0000    0.0000    0.0000 H   0  0  0  0  0  0  0  0  0  0  0  0
    0.0000    0.0000    0.0000 H   0  0  0  0  0  0  0  0  0  0  0  0
    0.0000    0.0000    0.0000 H   0  0  0  0  0  0  0  0  0  0  0  0
    0.0000    0.0000    0.0000 H   0  0  0  0  0  0  0  0  0  0  0  0
    0.0000    0.0000    0.0000 H   0  0  0  0  0  0  0  0  0  0  0  0
    0.0000    0.0000    0.0000 H   0  0  0  0  0  0  0  0  0  0  0  0
    0.0000    0.0000    0.0000 H   0  0  0  0  0  0  0  0  0  0  0  0
    0.0000    0.0000    0.0000 H   0  0  0  0  0  0  0  0  0  0  0  0
    0.0000    0.0000    0.0000 H   0  0  0  0  0  0  0  0  0  0  0  0
   10.8405    5.1769   10.4629 N   0  0  0  0  0  0  0  0  0  0  0  0
   11.3595    4.5191    9.3359 C   0  0  0  0  0  0  0  0  0  0  0  0
   12.5915    4.3719    9.2027 O   0  0  0  0  0  0  0  0  0  0  0  0
   10.4985    4.0102    8.3292 N   0  0  0  0  0  0  0  0  0  0  0  0
   10.8950    3.3394    7.1657 C   0  0  0  0  0  0  0  0  0  0  0  0
   12.1681    3.0487    6.7789 C   0  0  0  0  0  0  0  0  0  0  0  0
   12.4546    2.3714    5.5919 C   0  0  0  0  0  0  0  0  0  0  0  0
   11.4257    1.9690    4.7587 C   0  0  0  0  0  0  0  0  0  0  0  0
   10.1491    2.2479    5.1239 C   0  0  0  0  0  0  0  0  0  0  0  0
    9.8721    2.9166    6.2964 C   0  0  0  0  0  0  0  0  0  0  0  0
    9.9006    5.3612   10.6943 H   0  0  0  0  0  0  0  0  0  0  0  0
    9.4562    4.1858    8.5336 H   0  0  0  0  0  0  0  0  0  0  0  0
   13.0199    3.3214    7.3602 H   0  0  0  0  0  0  0  0  0  0  0  0
   13.4636    2.1406    5.2849 H   0  0  0  0  0  0  0  0  0  0  0  0
   11.6452    1.4446    3.8394 H   0  0  0  0  0  0  0  0  0  0  0  0
    9.3537    1.9195    4.4486 H   0  0  0  0  0  0  0  0  0  0  0  0
    8.8430    3.1224    6.5566 H   0  0  0  0  0  0  0  0  0  0  0  0
  1  3  2  0
  1  4  1  0
  2  4  1  0
  1  5  1  0
  2  6  1  0
  5  6  1  0
  6  7  2  3
  5  8  1  0
  4 10  1  0
 10 11  2  0
 11 12  1  0
 12 13  2  0
 13 14  1  0
 10 15  1  0
 14 15  2  0
  9 16  2  0
  9 17  1  0
 14 18  1  0
 17 18  2  0
 18 19  1  0
 16 20  1  0
 19 20  2  0
  2 21  1  0
  7 22  1  0
  8 23  1  0
  8 24  1  0
  8 25  1  0
 11 26  1  0
 12 27  1  0
 13 28  1  0
 15 29  1  0
 16 30  1  0
 17 31  1  0
 19 32  1  0
 20 33  1  0
 34 35  1  0
 35 36  2  0
 35 37  1  0
 37 38  1  0
 38 39  2  0
 39 40  1  0
 40 41  2  0
 41 42  1  0
 42 43  2  0
 43 38  1  0
 34 44  1  0
 37 45  1  0
 39 46  1  0
 40 47  1  0
 41 48  1  0
 42 49  1  0
 43 50  1  0
  4 34  1  6
M  END
>  <attachment_point>  (256) 
21

>  <score>  (256) 
<NA>

$$$$
4djw
     RDKit          3D

 47 49  0  0  0  0  0  0  0  0999 V2000
   22.4950   11.8750   22.5810 C   0  0  0  0  0  0  0  0  0  0  0  0
   22.5380    9.4930   22.4640 N   0  0  0  0  0  0  0  0  0  0  0  0
   22.3600   13.0630   22.3480 O   0  0  0  0  0  0  0  0  0  0  0  0
   22.3390   10.6680   21.5610 C   0  0  2  0  0  0  0  0  0  0  0  0
   22.7860   11.3350   23.8120 N   0  0  0  0  0  0  0  0  0  0  0  0
   22.7800    9.9140   23.7010 C   0  0  0  0  0  0  0  0  0  0  0  0
   22.9970    9.1110   24.7490 N   0  0  0  0  0  0  0  0  0  0  0  0
   23.0220   12.1410   25.0180 C   0  0  0  0  0  0  0  0  0  0  0  0
   29.1260    9.8230   21.7090 N   0  0  0  0  0  0  0  0  0  0  0  0
   23.4880   10.6920   20.5300 C   0  0  0  0  0  0  0  0  0  0  0  0
   23.2110   10.7890   19.1730 C   0  0  0  0  0  0  0  0  0  0  0  0
   24.2350   10.8650   18.2430 C   0  0  0  0  0  0  0  0  0  0  0  0
   25.5500   10.8410   18.6560 C   0  0  0  0  0  0  0  0  0  0  0  0
   25.8710   10.7460   20.0070 C   0  0  0  0  0  0  0  0  0  0  0  0
   24.8260   10.6610   20.9430 C   0  0  0  0  0  0  0  0  0  0  0  0
   29.8540   10.9130   21.4510 C   0  0  0  0  0  0  0  0  0  0  0  0
   27.8830    9.7800   21.2080 C   0  0  0  0  0  0  0  0  0  0  0  0
   27.3000   10.8010   20.4650 C   0  0  0  0  0  0  0  0  0  0  0  0
   28.0930   11.9190   20.2200 C   0  0  0  0  0  0  0  0  0  0  0  0
   29.3850   11.9780   20.7130 C   0  0  0  0  0  0  0  0  0  0  0  0
    0.0000    0.0000    0.0000 H   0  0  0  0  0  0  0  0  0  0  0  0
    0.0000    0.0000    0.0000 H   0  0  0  0  0  0  0  0  0  0  0  0
    0.0000    0.0000    0.0000 H   0  0  0  0  0  0  0  0  0  0  0  0
    0.0000    0.0000    0.0000 H   0  0  0  0  0  0  0  0  0  0  0  0
    0.0000    0.0000    0.0000 H   0  0  0  0  0  0  0  0  0  0  0  0
    0.0000    0.0000    0.0000 H   0  0  0  0  0  0  0  0  0  0  0  0
    0.0000    0.0000    0.0000 H   0  0  0  0  0  0  0  0  0  0  0  0
    0.0000    0.0000    0.0000 H   0  0  0  0  0  0  0  0  0  0  0  0
    0.0000    0.0000    0.0000 H   0  0  0  0  0  0  0  0  0  0  0  0
    0.0000    0.0000    0.0000 H   0  0  0  0  0  0  0  0  0  0  0  0
    0.0000    0.0000    0.0000 H   0  0  0  0  0  0  0  0  0  0  0  0
    0.0000    0.0000    0.0000 H   0  0  0  0  0  0  0  0  0  0  0  0
    0.0000    0.0000    0.0000 H   0  0  0  0  0  0  0  0  0  0  0  0
   10.9536    5.2309   10.5721 O   0  0  0  0  0  0  0  0  0  0  0  0
    9.9482    4.3684   11.0503 C   0  0  0  0  0  0  0  0  0  0  0  0
   10.6322    3.1410   11.6050 C   0  0  0  0  0  0  0  0  0  0  0  0
    9.1489    3.9494    9.8350 C   0  0  0  0  0  0  0  0  0  0  0  0
    9.1433    5.0838   12.0764 C   0  0  0  0  0  0  0  0  0  0  0  0
   11.7093    3.0933   11.3363 H   0  0  0  0  0  0  0  0  0  0  0  0
   10.1809    2.2009   11.2110 H   0  0  0  0  0  0  0  0  0  0  0  0
   10.4761    3.1591   12.7114 H   0  0  0  0  0  0  0  0  0  0  0  0
    8.8414    4.7922    9.2025 H   0  0  0  0  0  0  0  0  0  0  0  0
    9.8684    3.3482    9.2035 H   0  0  0  0  0  0  0  0  0  0  0  0
    8.3161    3.2617   10.1031 H   0  0  0  0  0  0  0  0  0  0  0  0
    8.0652    4.8378   12.0722 H   0  0  0  0  0  0  0  0  0  0  0  0
    9.5090    4.8545   13.1004 H   0  0  0  0  0  0  0  0  0  0  0  0
    9.2154    6.1794   11.9315 H   0  0  0  0  0  0  0  0  0  0  0  0
  1  3  2  0
  1  4  1  0
  2  4  1  0
  1  5  1  0
  2  6  1  0
  5  6  1  0
  6  7  2  3
  5  8  1  0
  4 10  1  0
 10 11  2  0
 11 12  1  0
 12 13  2  0
 13 14  1  0
 10 15  1  0
 14 15  2  0
  9 16  2  0
  9 17  1  0
 14 18  1  0
 17 18  2  0
 18 19  1  0
 16 20  1  0
 19 20  2  0
  2 21  1  0
  7 22  1  0
  8 23  1  0
  8 24  1  0
  8 25  1  0
 11 26  1  0
 12 27  1  0
 13 28  1  0
 15 29  1  0
 16 30  1  0
 17 31  1  0
 19 32  1  0
 20 33  1  0
 34 35  1  0
 35 36  1  0
 35 37  1  0
 35 38  1  0
 36 39  1  0
 36 40  1  0
 36 41  1  0
 37 42  1  0
 37 43  1  0
 37 44  1  0
 38 45  1  0
 38 46  1  0
 38 47  1  0
  4 34  1  6
M  END
>  <attachment_point>  (257) 
21

>  <score>  (257) 
<NA>

$$$$
4djw
     RDKit          3D

 47 50  0  0  0  0  0  0  0  0999 V2000
   22.4950   11.8750   22.5810 C   0  0  0  0  0  0  0  0  0  0  0  0
   22.5380    9.4930   22.4640 N   0  0  0  0  0  0  0  0  0  0  0  0
   22.3600   13.0630   22.3480 O   0  0  0  0  0  0  0  0  0  0  0  0
   22.3390   10.6680   21.5610 C   0  0  2  0  0  0  0  0  0  0  0  0
   22.7860   11.3350   23.8120 N   0  0  0  0  0  0  0  0  0  0  0  0
   22.7800    9.9140   23.7010 C   0  0  0  0  0  0  0  0  0  0  0  0
   22.9970    9.1110   24.7490 N   0  0  0  0  0  0  0  0  0  0  0  0
   23.0220   12.1410   25.0180 C   0  0  0  0  0  0  0  0  0  0  0  0
   29.1260    9.8230   21.7090 N   0  0  0  0  0  0  0  0  0  0  0  0
   23.4880   10.6920   20.5300 C   0  0  0  0  0  0  0  0  0  0  0  0
   23.2110   10.7890   19.1730 C   0  0  0  0  0  0  0  0  0  0  0  0
   24.2350   10.8650   18.2430 C   0  0  0  0  0  0  0  0  0  0  0  0
   25.5500   10.8410   18.6560 C   0  0  0  0  0  0  0  0  0  0  0  0
   25.8710   10.7460   20.0070 C   0  0  0  0  0  0  0  0  0  0  0  0
   24.8260   10.6610   20.9430 C   0  0  0  0  0  0  0  0  0  0  0  0
   29.8540   10.9130   21.4510 C   0  0  0  0  0  0  0  0  0  0  0  0
   27.8830    9.7800   21.2080 C   0  0  0  0  0  0  0  0  0  0  0  0
   27.3000   10.8010   20.4650 C   0  0  0  0  0  0  0  0  0  0  0  0
   28.0930   11.9190   20.2200 C   0  0  0  0  0  0  0  0  0  0  0  0
   29.3850   11.9780   20.7130 C   0  0  0  0  0  0  0  0  0  0  0  0
    0.0000    0.0000    0.0000 H   0  0  0  0  0  0  0  0  0  0  0  0
    0.0000    0.0000    0.0000 H   0  0  0  0  0  0  0  0  0  0  0  0
    0.0000    0.0000    0.0000 H   0  0  0  0  0  0  0  0  0  0  0  0
    0.0000    0.0000    0.0000 H   0  0  0  0  0  0  0  0  0  0  0  0
    0.0000    0.0000    0.0000 H   0  0  0  0  0  0  0  0  0  0  0  0
    0.0000    0.0000    0.0000 H   0  0  0  0  0  0  0  0  0  0  0  0
    0.0000    0.0000    0.0000 H   0  0  0  0  0  0  0  0  0  0  0  0
    0.0000    0.0000    0.0000 H   0  0  0  0  0  0  0  0  0  0  0  0
    0.0000    0.0000    0.0000 H   0  0  0  0  0  0  0  0  0  0  0  0
    0.0000    0.0000    0.0000 H   0  0  0  0  0  0  0  0  0  0  0  0
    0.0000    0.0000    0.0000 H   0  0  0  0  0  0  0  0  0  0  0  0
    0.0000    0.0000    0.0000 H   0  0  0  0  0  0  0  0  0  0  0  0
    0.0000    0.0000    0.0000 H   0  0  0  0  0  0  0  0  0  0  0  0
   10.8532    5.1829   10.4752 C   0  0  0  0  0  0  0  0  0  0  0  0
    9.5187    5.6232   10.9674 C   0  0  0  0  0  0  0  0  0  0  0  0
    8.9172    6.7118   10.3908 C   0  0  0  0  0  0  0  0  0  0  0  0
    7.6632    7.1159   10.8697 C   0  0  0  0  0  0  0  0  0  0  0  0
    7.0093    6.4664   11.8945 C   0  0  0  0  0  0  0  0  0  0  0  0
    7.6297    5.3752   12.4591 C   0  0  0  0  0  0  0  0  0  0  0  0
    8.8817    4.9604   11.9922 C   0  0  0  0  0  0  0  0  0  0  0  0
    9.6927    3.5899   12.6750 Cl  0  0  0  0  0  0  0  0  0  0  0  0
   11.1777    5.6468    9.5440 H   0  0  0  0  0  0  0  0  0  0  0  0
   11.0010    4.0869   10.5376 H   0  0  0  0  0  0  0  0  0  0  0  0
    9.4070    7.2530    9.5734 H   0  0  0  0  0  0  0  0  0  0  0  0
    7.2049    7.9646   10.4230 H   0  0  0  0  0  0  0  0  0  0  0  0
    6.0407    6.7732   12.2679 H   0  0  0  0  0  0  0  0  0  0  0  0
    7.1627    4.8169   13.2741 H   0  0  0  0  0  0  0  0  0  0  0  0
  1  3  2  0
  1  4  1  0
  2  4  1  0
  1  5  1  0
  2  6  1  0
  5  6  1  0
  6  7  2  3
  5  8  1  0
  4 10  1  0
 10 11  2  0
 11 12  1  0
 12 13  2  0
 13 14  1  0
 10 15  1  0
 14 15  2  0
  9 16  2  0
  9 17  1  0
 14 18  1  0
 17 18  2  0
 18 19  1  0
 16 20  1  0
 19 20  2  0
  2 21  1  0
  7 22  1  0
  8 23  1  0
  8 24  1  0
  8 25  1  0
 11 26  1  0
 12 27  1  0
 13 28  1  0
 15 29  1  0
 16 30  1  0
 17 31  1  0
 19 32  1  0
 20 33  1  0
 34 35  1  0
 35 36  2  0
 36 37  1  0
 37 38  2  0
 38 39  1  0
 39 40  2  0
 40 41  1  0
 40 35  1  0
 34 42  1  0
 34 43  1  0
 36 44  1  0
 37 45  1  0
 38 46  1  0
 39 47  1  0
  4 34  1  6
M  END
>  <attachment_point>  (258) 
21

>  <score>  (258) 
<NA>

$$$$
4djw
     RDKit          3D

 47 50  0  0  0  0  0  0  0  0999 V2000
   22.4950   11.8750   22.5810 C   0  0  0  0  0  0  0  0  0  0  0  0
   22.5380    9.4930   22.4640 N   0  0  0  0  0  0  0  0  0  0  0  0
   22.3600   13.0630   22.3480 O   0  0  0  0  0  0  0  0  0  0  0  0
   22.3390   10.6680   21.5610 C   0  0  2  0  0  0  0  0  0  0  0  0
   22.7860   11.3350   23.8120 N   0  0  0  0  0  0  0  0  0  0  0  0
   22.7800    9.9140   23.7010 C   0  0  0  0  0  0  0  0  0  0  0  0
   22.9970    9.1110   24.7490 N   0  0  0  0  0  0  0  0  0  0  0  0
   23.0220   12.1410   25.0180 C   0  0  0  0  0  0  0  0  0  0  0  0
   29.1260    9.8230   21.7090 N   0  0  0  0  0  0  0  0  0  0  0  0
   23.4880   10.6920   20.5300 C   0  0  0  0  0  0  0  0  0  0  0  0
   23.2110   10.7890   19.1730 C   0  0  0  0  0  0  0  0  0  0  0  0
   24.2350   10.8650   18.2430 C   0  0  0  0  0  0  0  0  0  0  0  0
   25.5500   10.8410   18.6560 C   0  0  0  0  0  0  0  0  0  0  0  0
   25.8710   10.7460   20.0070 C   0  0  0  0  0  0  0  0  0  0  0  0
   24.8260   10.6610   20.9430 C   0  0  0  0  0  0  0  0  0  0  0  0
   29.8540   10.9130   21.4510 C   0  0  0  0  0  0  0  0  0  0  0  0
   27.8830    9.7800   21.2080 C   0  0  0  0  0  0  0  0  0  0  0  0
   27.3000   10.8010   20.4650 C   0  0  0  0  0  0  0  0  0  0  0  0
   28.0930   11.9190   20.2200 C   0  0  0  0  0  0  0  0  0  0  0  0
   29.3850   11.9780   20.7130 C   0  0  0  0  0  0  0  0  0  0  0  0
    0.0000    0.0000    0.0000 H   0  0  0  0  0  0  0  0  0  0  0  0
    0.0000    0.0000    0.0000 H   0  0  0  0  0  0  0  0  0  0  0  0
    0.0000    0.0000    0.0000 H   0  0  0  0  0  0  0  0  0  0  0  0
    0.0000    0.0000    0.0000 H   0  0  0  0  0  0  0  0  0  0  0  0
    0.0000    0.0000    0.0000 H   0  0  0  0  0  0  0  0  0  0  0  0
    0.0000    0.0000    0.0000 H   0  0  0  0  0  0  0  0  0  0  0  0
    0.0000    0.0000    0.0000 H   0  0  0  0  0  0  0  0  0  0  0  0
    0.0000    0.0000    0.0000 H   0  0  0  0  0  0  0  0  0  0  0  0
    0.0000    0.0000    0.0000 H   0  0  0  0  0  0  0  0  0  0  0  0
    0.0000    0.0000    0.0000 H   0  0  0  0  0  0  0  0  0  0  0  0
    0.0000    0.0000    0.0000 H   0  0  0  0  0  0  0  0  0  0  0  0
    0.0000    0.0000    0.0000 H   0  0  0  0  0  0  0  0  0  0  0  0
    0.0000    0.0000    0.0000 H   0  0  0  0  0  0  0  0  0  0  0  0
   10.8790    5.1952   10.5001 C   0  0  0  0  0  0  0  0  0  0  0  0
   11.2304    4.6172    9.3000 C   0  0  0  0  0  0  0  0  0  0  0  0
   10.2340    4.1940    8.4470 C   0  0  0  0  0  0  0  0  0  0  0  0
    8.9221    4.3707    8.8378 C   0  0  0  0  0  0  0  0  0  0  0  0
    8.6121    4.9370   10.0128 N   0  0  0  0  0  0  0  0  0  0  0  0
    9.5605    5.3594   10.8654 C   0  0  0  0  0  0  0  0  0  0  0  0
    9.2156    5.9428   12.0762 O   0  0  0  0  0  0  0  0  0  0  0  0
    7.8680    6.1210   12.4712 C   0  0  0  0  0  0  0  0  0  0  0  0
   12.2819    4.4927    9.0224 H   0  0  0  0  0  0  0  0  0  0  0  0
   10.4760    3.7267    7.4773 H   0  0  0  0  0  0  0  0  0  0  0  0
    8.1399    4.0265    8.1432 H   0  0  0  0  0  0  0  0  0  0  0  0
    7.2718    5.2895   12.0402 H   0  0  0  0  0  0  0  0  0  0  0  0
    7.4844    7.1044   12.1066 H   0  0  0  0  0  0  0  0  0  0  0  0
    7.8072    6.0859   13.5769 H   0  0  0  0  0  0  0  0  0  0  0  0
  1  3  2  0
  1  4  1  0
  2  4  1  0
  1  5  1  0
  2  6  1  0
  5  6  1  0
  6  7  2  3
  5  8  1  0
  4 10  1  6
 10 11  2  0
 11 12  1  0
 12 13  2  0
 13 14  1  0
 10 15  1  0
 14 15  2  0
  9 16  2  0
  9 17  1  0
 14 18  1  0
 17 18  2  0
 18 19  1  0
 16 20  1  0
 19 20  2  0
  2 21  1  0
  7 22  1  0
  8 23  1  0
  8 24  1  0
  8 25  1  0
 11 26  1  0
 12 27  1  0
 13 28  1  0
 15 29  1  0
 16 30  1  0
 17 31  1  0
 19 32  1  0
 20 33  1  0
 34 35  2  0
 35 36  1  0
 36 37  2  0
 37 38  1  0
 38 39  2  0
 39 40  1  0
 40 41  1  0
 39 34  1  0
 35 42  1  0
 36 43  1  0
 37 44  1  0
 41 45  1  0
 41 46  1  0
 41 47  1  0
  4 34  1  0
M  END
>  <attachment_point>  (259) 
21

>  <score>  (259) 
<NA>

$$$$
4djw
     RDKit          3D

 47 50  0  0  0  0  0  0  0  0999 V2000
   22.4950   11.8750   22.5810 C   0  0  0  0  0  0  0  0  0  0  0  0
   22.5380    9.4930   22.4640 N   0  0  0  0  0  0  0  0  0  0  0  0
   22.3600   13.0630   22.3480 O   0  0  0  0  0  0  0  0  0  0  0  0
   22.3390   10.6680   21.5610 C   0  0  2  0  0  0  0  0  0  0  0  0
   22.7860   11.3350   23.8120 N   0  0  0  0  0  0  0  0  0  0  0  0
   22.7800    9.9140   23.7010 C   0  0  0  0  0  0  0  0  0  0  0  0
   22.9970    9.1110   24.7490 N   0  0  0  0  0  0  0  0  0  0  0  0
   23.0220   12.1410   25.0180 C   0  0  0  0  0  0  0  0  0  0  0  0
   29.1260    9.8230   21.7090 N   0  0  0  0  0  0  0  0  0  0  0  0
   23.4880   10.6920   20.5300 C   0  0  0  0  0  0  0  0  0  0  0  0
   23.2110   10.7890   19.1730 C   0  0  0  0  0  0  0  0  0  0  0  0
   24.2350   10.8650   18.2430 C   0  0  0  0  0  0  0  0  0  0  0  0
   25.5500   10.8410   18.6560 C   0  0  0  0  0  0  0  0  0  0  0  0
   25.8710   10.7460   20.0070 C   0  0  0  0  0  0  0  0  0  0  0  0
   24.8260   10.6610   20.9430 C   0  0  0  0  0  0  0  0  0  0  0  0
   29.8540   10.9130   21.4510 C   0  0  0  0  0  0  0  0  0  0  0  0
   27.8830    9.7800   21.2080 C   0  0  0  0  0  0  0  0  0  0  0  0
   27.3000   10.8010   20.4650 C   0  0  0  0  0  0  0  0  0  0  0  0
   28.0930   11.9190   20.2200 C   0  0  0  0  0  0  0  0  0  0  0  0
   29.3850   11.9780   20.7130 C   0  0  0  0  0  0  0  0  0  0  0  0
    0.0000    0.0000    0.0000 H   0  0  0  0  0  0  0  0  0  0  0  0
    0.0000    0.0000    0.0000 H   0  0  0  0  0  0  0  0  0  0  0  0
    0.0000    0.0000    0.0000 H   0  0  0  0  0  0  0  0  0  0  0  0
    0.0000    0.0000    0.0000 H   0  0  0  0  0  0  0  0  0  0  0  0
    0.0000    0.0000    0.0000 H   0  0  0  0  0  0  0  0  0  0  0  0
    0.0000    0.0000    0.0000 H   0  0  0  0  0  0  0  0  0  0  0  0
    0.0000    0.0000    0.0000 H   0  0  0  0  0  0  0  0  0  0  0  0
    0.0000    0.0000    0.0000 H   0  0  0  0  0  0  0  0  0  0  0  0
    0.0000    0.0000    0.0000 H   0  0  0  0  0  0  0  0  0  0  0  0
    0.0000    0.0000    0.0000 H   0  0  0  0  0  0  0  0  0  0  0  0
    0.0000    0.0000    0.0000 H   0  0  0  0  0  0  0  0  0  0  0  0
    0.0000    0.0000    0.0000 H   0  0  0  0  0  0  0  0  0  0  0  0
    0.0000    0.0000    0.0000 H   0  0  0  0  0  0  0  0  0  0  0  0
   10.8867    5.1989   10.5075 C   0  0  0  0  0  0  0  0  0  0  0  0
   10.7506    5.8880    9.3140 C   0  0  0  0  0  0  0  0  0  0  0  0
    9.8030    5.4226    8.4179 C   0  0  0  0  0  0  0  0  0  0  0  0
    9.0128    4.3229    8.6730 C   0  0  0  0  0  0  0  0  0  0  0  0
    9.1961    3.6801    9.8787 C   0  0  0  0  0  0  0  0  0  0  0  0
   10.1209    4.0936   10.8107 C   0  0  0  0  0  0  0  0  0  0  0  0
   10.2958    3.3707   12.1152 C   0  0  0  0  0  0  0  0  0  0  0  0
   11.5871    2.8937   12.2316 F   0  0  0  0  0  0  0  0  0  0  0  0
    9.3379    2.4301   12.3092 F   0  0  0  0  0  0  0  0  0  0  0  0
   10.1603    4.3468   13.1066 F   0  0  0  0  0  0  0  0  0  0  0  0
   11.3584    6.7614    9.0793 H   0  0  0  0  0  0  0  0  0  0  0  0
    9.6765    5.9402    7.4818 H   0  0  0  0  0  0  0  0  0  0  0  0
    8.2867    3.9987    7.9406 H   0  0  0  0  0  0  0  0  0  0  0  0
    8.5836    2.8083   10.1036 H   0  0  0  0  0  0  0  0  0  0  0  0
  1  3  2  0
  1  4  1  0
  2  4  1  0
  1  5  1  0
  2  6  1  0
  5  6  1  0
  6  7  2  3
  5  8  1  0
  4 10  1  6
 10 11  2  0
 11 12  1  0
 12 13  2  0
 13 14  1  0
 10 15  1  0
 14 15  2  0
  9 16  2  0
  9 17  1  0
 14 18  1  0
 17 18  2  0
 18 19  1  0
 16 20  1  0
 19 20  2  0
  2 21  1  0
  7 22  1  0
  8 23  1  0
  8 24  1  0
  8 25  1  0
 11 26  1  0
 12 27  1  0
 13 28  1  0
 15 29  1  0
 16 30  1  0
 17 31  1  0
 19 32  1  0
 20 33  1  0
 34 35  2  0
 35 36  1  0
 36 37  2  0
 37 38  1  0
 38 39  2  0
 39 40  1  0
 40 41  1  0
 40 42  1  0
 40 43  1  0
 39 34  1  0
 35 44  1  0
 36 45  1  0
 37 46  1  0
 38 47  1  0
  4 34  1  0
M  END
>  <attachment_point>  (260) 
21

>  <score>  (260) 
<NA>

$$$$
4djw
     RDKit          3D

 54 57  0  0  0  0  0  0  0  0999 V2000
   22.4950   11.8750   22.5810 C   0  0  0  0  0  0  0  0  0  0  0  0
   22.5380    9.4930   22.4640 N   0  0  0  0  0  0  0  0  0  0  0  0
   22.3600   13.0630   22.3480 O   0  0  0  0  0  0  0  0  0  0  0  0
   22.3390   10.6680   21.5610 C   0  0  2  0  0  0  0  0  0  0  0  0
   22.7860   11.3350   23.8120 N   0  0  0  0  0  0  0  0  0  0  0  0
   22.7800    9.9140   23.7010 C   0  0  0  0  0  0  0  0  0  0  0  0
   22.9970    9.1110   24.7490 N   0  0  0  0  0  0  0  0  0  0  0  0
   23.0220   12.1410   25.0180 C   0  0  0  0  0  0  0  0  0  0  0  0
   29.1260    9.8230   21.7090 N   0  0  0  0  0  0  0  0  0  0  0  0
   23.4880   10.6920   20.5300 C   0  0  0  0  0  0  0  0  0  0  0  0
   23.2110   10.7890   19.1730 C   0  0  0  0  0  0  0  0  0  0  0  0
   24.2350   10.8650   18.2430 C   0  0  0  0  0  0  0  0  0  0  0  0
   25.5500   10.8410   18.6560 C   0  0  0  0  0  0  0  0  0  0  0  0
   25.8710   10.7460   20.0070 C   0  0  0  0  0  0  0  0  0  0  0  0
   24.8260   10.6610   20.9430 C   0  0  0  0  0  0  0  0  0  0  0  0
   29.8540   10.9130   21.4510 C   0  0  0  0  0  0  0  0  0  0  0  0
   27.8830    9.7800   21.2080 C   0  0  0  0  0  0  0  0  0  0  0  0
   27.3000   10.8010   20.4650 C   0  0  0  0  0  0  0  0  0  0  0  0
   28.0930   11.9190   20.2200 C   0  0  0  0  0  0  0  0  0  0  0  0
   29.3850   11.9780   20.7130 C   0  0  0  0  0  0  0  0  0  0  0  0
    0.0000    0.0000    0.0000 H   0  0  0  0  0  0  0  0  0  0  0  0
    0.0000    0.0000    0.0000 H   0  0  0  0  0  0  0  0  0  0  0  0
    0.0000    0.0000    0.0000 H   0  0  0  0  0  0  0  0  0  0  0  0
    0.0000    0.0000    0.0000 H   0  0  0  0  0  0  0  0  0  0  0  0
    0.0000    0.0000    0.0000 H   0  0  0  0  0  0  0  0  0  0  0  0
    0.0000    0.0000    0.0000 H   0  0  0  0  0  0  0  0  0  0  0  0
    0.0000    0.0000    0.0000 H   0  0  0  0  0  0  0  0  0  0  0  0
    0.0000    0.0000    0.0000 H   0  0  0  0  0  0  0  0  0  0  0  0
    0.0000    0.0000    0.0000 H   0  0  0  0  0  0  0  0  0  0  0  0
    0.0000    0.0000    0.0000 H   0  0  0  0  0  0  0  0  0  0  0  0
    0.0000    0.0000    0.0000 H   0  0  0  0  0  0  0  0  0  0  0  0
    0.0000    0.0000    0.0000 H   0  0  0  0  0  0  0  0  0  0  0  0
    0.0000    0.0000    0.0000 H   0  0  0  0  0  0  0  0  0  0  0  0
   10.8651    5.1886   10.4867 C   0  0  0  0  0  0  0  0  0  0  0  0
   10.1487    6.0125    9.8752 O   0  0  0  0  0  0  0  0  0  0  0  0
   10.7931    3.7810   10.3231 N   0  0  0  0  0  0  0  0  0  0  0  0
    9.8474    3.2173    9.4005 C   0  0  0  0  0  0  0  0  0  0  0  0
   10.0982    3.6988    7.9908 C   0  0  0  0  0  0  0  0  0  0  0  0
    9.1075    3.1033    7.0380 C   0  0  0  0  0  0  0  0  0  0  0  0
    7.9107    3.7309    6.7658 C   0  0  0  0  0  0  0  0  0  0  0  0
    7.0085    3.1640    5.8821 C   0  0  0  0  0  0  0  0  0  0  0  0
    7.3206    1.9614    5.2754 C   0  0  0  0  0  0  0  0  0  0  0  0
    8.5202    1.3453    5.5567 C   0  0  0  0  0  0  0  0  0  0  0  0
    9.4206    1.9039    6.4339 C   0  0  0  0  0  0  0  0  0  0  0  0
   11.4543    3.1800   10.9000 H   0  0  0  0  0  0  0  0  0  0  0  0
    8.8075    3.5422    9.6558 H   0  0  0  0  0  0  0  0  0  0  0  0
    9.8755    2.1115    9.4213 H   0  0  0  0  0  0  0  0  0  0  0  0
   10.0777    4.8013    7.9027 H   0  0  0  0  0  0  0  0  0  0  0  0
   11.1389    3.3511    7.7225 H   0  0  0  0  0  0  0  0  0  0  0  0
    7.6723    4.6664    7.2402 H   0  0  0  0  0  0  0  0  0  0  0  0
    6.0641    3.6565    5.6654 H   0  0  0  0  0  0  0  0  0  0  0  0
    6.6016    1.5131    4.5733 H   0  0  0  0  0  0  0  0  0  0  0  0
    8.7485    0.3960    5.0674 H   0  0  0  0  0  0  0  0  0  0  0  0
   10.3675    1.4097    6.6508 H   0  0  0  0  0  0  0  0  0  0  0  0
  1  3  2  0
  1  4  1  0
  2  4  1  0
  1  5  1  0
  2  6  1  0
  5  6  1  0
  6  7  2  3
  5  8  1  0
  4 10  1  0
 10 11  2  0
 11 12  1  0
 12 13  2  0
 13 14  1  0
 10 15  1  0
 14 15  2  0
  9 16  2  0
  9 17  1  0
 14 18  1  0
 17 18  2  0
 18 19  1  0
 16 20  1  0
 19 20  2  0
  2 21  1  0
  7 22  1  0
  8 23  1  0
  8 24  1  0
  8 25  1  0
 11 26  1  0
 12 27  1  0
 13 28  1  0
 15 29  1  0
 16 30  1  0
 17 31  1  0
 19 32  1  0
 20 33  1  0
 34 35  2  0
 34 36  1  0
 36 37  1  0
 37 38  1  0
 38 39  1  0
 39 40  2  0
 40 41  1  0
 41 42  2  0
 42 43  1  0
 43 44  2  0
 44 39  1  0
 36 45  1  0
 37 46  1  0
 37 47  1  0
 38 48  1  0
 38 49  1  0
 40 50  1  0
 41 51  1  0
 42 52  1  0
 43 53  1  0
 44 54  1  0
  4 34  1  6
M  END
>  <attachment_point>  (261) 
21

>  <score>  (261) 
<NA>

$$$$
4djw
     RDKit          3D

 47 50  0  0  0  0  0  0  0  0999 V2000
   22.4950   11.8750   22.5810 C   0  0  0  0  0  0  0  0  0  0  0  0
   22.5380    9.4930   22.4640 N   0  0  0  0  0  0  0  0  0  0  0  0
   22.3600   13.0630   22.3480 O   0  0  0  0  0  0  0  0  0  0  0  0
   22.3390   10.6680   21.5610 C   0  0  2  0  0  0  0  0  0  0  0  0
   22.7860   11.3350   23.8120 N   0  0  0  0  0  0  0  0  0  0  0  0
   22.7800    9.9140   23.7010 C   0  0  0  0  0  0  0  0  0  0  0  0
   22.9970    9.1110   24.7490 N   0  0  0  0  0  0  0  0  0  0  0  0
   23.0220   12.1410   25.0180 C   0  0  0  0  0  0  0  0  0  0  0  0
   29.1260    9.8230   21.7090 N   0  0  0  0  0  0  0  0  0  0  0  0
   23.4880   10.6920   20.5300 C   0  0  0  0  0  0  0  0  0  0  0  0
   23.2110   10.7890   19.1730 C   0  0  0  0  0  0  0  0  0  0  0  0
   24.2350   10.8650   18.2430 C   0  0  0  0  0  0  0  0  0  0  0  0
   25.5500   10.8410   18.6560 C   0  0  0  0  0  0  0  0  0  0  0  0
   25.8710   10.7460   20.0070 C   0  0  0  0  0  0  0  0  0  0  0  0
   24.8260   10.6610   20.9430 C   0  0  0  0  0  0  0  0  0  0  0  0
   29.8540   10.9130   21.4510 C   0  0  0  0  0  0  0  0  0  0  0  0
   27.8830    9.7800   21.2080 C   0  0  0  0  0  0  0  0  0  0  0  0
   27.3000   10.8010   20.4650 C   0  0  0  0  0  0  0  0  0  0  0  0
   28.0930   11.9190   20.2200 C   0  0  0  0  0  0  0  0  0  0  0  0
   29.3850   11.9780   20.7130 C   0  0  0  0  0  0  0  0  0  0  0  0
    0.0000    0.0000    0.0000 H   0  0  0  0  0  0  0  0  0  0  0  0
    0.0000    0.0000    0.0000 H   0  0  0  0  0  0  0  0  0  0  0  0
    0.0000    0.0000    0.0000 H   0  0  0  0  0  0  0  0  0  0  0  0
    0.0000    0.0000    0.0000 H   0  0  0  0  0  0  0  0  0  0  0  0
    0.0000    0.0000    0.0000 H   0  0  0  0  0  0  0  0  0  0  0  0
    0.0000    0.0000    0.0000 H   0  0  0  0  0  0  0  0  0  0  0  0
    0.0000    0.0000    0.0000 H   0  0  0  0  0  0  0  0  0  0  0  0
    0.0000    0.0000    0.0000 H   0  0  0  0  0  0  0  0  0  0  0  0
    0.0000    0.0000    0.0000 H   0  0  0  0  0  0  0  0  0  0  0  0
    0.0000    0.0000    0.0000 H   0  0  0  0  0  0  0  0  0  0  0  0
    0.0000    0.0000    0.0000 H   0  0  0  0  0  0  0  0  0  0  0  0
    0.0000    0.0000    0.0000 H   0  0  0  0  0  0  0  0  0  0  0  0
    0.0000    0.0000    0.0000 H   0  0  0  0  0  0  0  0  0  0  0  0
   10.8725    5.1921   10.4938 N   0  0  0  0  0  0  0  0  0  0  0  0
   11.3109    4.9319    9.1899 C   0  0  0  0  0  0  0  0  0  0  0  0
   12.5237    5.1196    8.9205 O   0  0  0  0  0  0  0  0  0  0  0  0
   10.3812    4.4567    8.1781 C   0  0  0  0  0  0  0  0  0  0  0  0
    9.0439    4.2348    8.4206 C   0  0  0  0  0  0  0  0  0  0  0  0
    8.1595    3.7768    7.4360 C   0  0  0  0  0  0  0  0  0  0  0  0
    8.6874    3.5598    6.2199 N   0  0  0  0  0  0  0  0  0  0  0  0
    9.9721    3.7689    5.9721 C   0  0  0  0  0  0  0  0  0  0  0  0
   10.8840    4.2181    6.9026 C   0  0  0  0  0  0  0  0  0  0  0  0
    9.9024    5.0778   10.8407 H   0  0  0  0  0  0  0  0  0  0  0  0
    8.6430    4.4172    9.4087 H   0  0  0  0  0  0  0  0  0  0  0  0
    7.1208    3.6205    7.6831 H   0  0  0  0  0  0  0  0  0  0  0  0
   10.3646    3.5806    4.9692 H   0  0  0  0  0  0  0  0  0  0  0  0
   11.9364    4.3794    6.6627 H   0  0  0  0  0  0  0  0  0  0  0  0
  1  3  2  0
  1  4  1  0
  2  4  1  0
  1  5  1  0
  2  6  1  0
  5  6  1  0
  6  7  2  3
  5  8  1  0
  4 10  1  0
 10 11  2  0
 11 12  1  0
 12 13  2  0
 13 14  1  0
 10 15  1  0
 14 15  2  0
  9 16  2  0
  9 17  1  0
 14 18  1  0
 17 18  2  0
 18 19  1  0
 16 20  1  0
 19 20  2  0
  2 21  1  0
  7 22  1  0
  8 23  1  0
  8 24  1  0
  8 25  1  0
 11 26  1  0
 12 27  1  0
 13 28  1  0
 15 29  1  0
 16 30  1  0
 17 31  1  0
 19 32  1  0
 20 33  1  0
 34 35  1  0
 35 36  2  0
 35 37  1  0
 37 38  2  0
 38 39  1  0
 39 40  2  0
 40 41  1  0
 41 42  2  0
 42 37  1  0
 34 43  1  0
 38 44  1  0
 39 45  1  0
 41 46  1  0
 42 47  1  0
  4 34  1  6
M  END
>  <attachment_point>  (262) 
21

>  <score>  (262) 
<NA>

$$$$
4djw
     RDKit          3D

 50 53  0  0  0  0  0  0  0  0999 V2000
   22.4950   11.8750   22.5810 C   0  0  0  0  0  0  0  0  0  0  0  0
   22.5380    9.4930   22.4640 N   0  0  0  0  0  0  0  0  0  0  0  0
   22.3600   13.0630   22.3480 O   0  0  0  0  0  0  0  0  0  0  0  0
   22.3390   10.6680   21.5610 C   0  0  2  0  0  0  0  0  0  0  0  0
   22.7860   11.3350   23.8120 N   0  0  0  0  0  0  0  0  0  0  0  0
   22.7800    9.9140   23.7010 C   0  0  0  0  0  0  0  0  0  0  0  0
   22.9970    9.1110   24.7490 N   0  0  0  0  0  0  0  0  0  0  0  0
   23.0220   12.1410   25.0180 C   0  0  0  0  0  0  0  0  0  0  0  0
   29.1260    9.8230   21.7090 N   0  0  0  0  0  0  0  0  0  0  0  0
   23.4880   10.6920   20.5300 C   0  0  0  0  0  0  0  0  0  0  0  0
   23.2110   10.7890   19.1730 C   0  0  0  0  0  0  0  0  0  0  0  0
   24.2350   10.8650   18.2430 C   0  0  0  0  0  0  0  0  0  0  0  0
   25.5500   10.8410   18.6560 C   0  0  0  0  0  0  0  0  0  0  0  0
   25.8710   10.7460   20.0070 C   0  0  0  0  0  0  0  0  0  0  0  0
   24.8260   10.6610   20.9430 C   0  0  0  0  0  0  0  0  0  0  0  0
   29.8540   10.9130   21.4510 C   0  0  0  0  0  0  0  0  0  0  0  0
   27.8830    9.7800   21.2080 C   0  0  0  0  0  0  0  0  0  0  0  0
   27.3000   10.8010   20.4650 C   0  0  0  0  0  0  0  0  0  0  0  0
   28.0930   11.9190   20.2200 C   0  0  0  0  0  0  0  0  0  0  0  0
   29.3850   11.9780   20.7130 C   0  0  0  0  0  0  0  0  0  0  0  0
    0.0000    0.0000    0.0000 H   0  0  0  0  0  0  0  0  0  0  0  0
    0.0000    0.0000    0.0000 H   0  0  0  0  0  0  0  0  0  0  0  0
    0.0000    0.0000    0.0000 H   0  0  0  0  0  0  0  0  0  0  0  0
    0.0000    0.0000    0.0000 H   0  0  0  0  0  0  0  0  0  0  0  0
    0.0000    0.0000    0.0000 H   0  0  0  0  0  0  0  0  0  0  0  0
    0.0000    0.0000    0.0000 H   0  0  0  0  0  0  0  0  0  0  0  0
    0.0000    0.0000    0.0000 H   0  0  0  0  0  0  0  0  0  0  0  0
    0.0000    0.0000    0.0000 H   0  0  0  0  0  0  0  0  0  0  0  0
    0.0000    0.0000    0.0000 H   0  0  0  0  0  0  0  0  0  0  0  0
    0.0000    0.0000    0.0000 H   0  0  0  0  0  0  0  0  0  0  0  0
    0.0000    0.0000    0.0000 H   0  0  0  0  0  0  0  0  0  0  0  0
    0.0000    0.0000    0.0000 H   0  0  0  0  0  0  0  0  0  0  0  0
    0.0000    0.0000    0.0000 H   0  0  0  0  0  0  0  0  0  0  0  0
   10.8898    5.2004   10.5105 O   0  0  0  0  0  0  0  0  0  0  0  0
   11.0587    6.0233    9.3975 C   0  0  0  0  0  0  0  0  0  0  0  0
    9.7493    6.7193    9.1051 C   0  0  0  0  0  0  0  0  0  0  0  0
    9.6784    7.3506    7.7700 C   0  0  0  0  0  0  0  0  0  0  0  0
   10.3638    6.7104    6.7099 N   0  0  0  0  0  0  0  0  0  0  0  0
   11.6332    6.1295    7.0702 C   0  0  0  0  0  0  0  0  0  0  0  0
   11.3518    5.1486    8.1965 C   0  0  0  0  0  0  0  0  0  0  0  0
   11.8537    6.7739    9.5271 H   0  0  0  0  0  0  0  0  0  0  0  0
    8.9075    6.0084    9.2786 H   0  0  0  0  0  0  0  0  0  0  0  0
    9.6196    7.5155    9.8790 H   0  0  0  0  0  0  0  0  0  0  0  0
    8.5873    7.3989    7.4773 H   0  0  0  0  0  0  0  0  0  0  0  0
    9.9917    8.4146    7.8448 H   0  0  0  0  0  0  0  0  0  0  0  0
    9.7787    5.9577    6.2814 H   0  0  0  0  0  0  0  0  0  0  0  0
   12.3306    6.9330    7.4191 H   0  0  0  0  0  0  0  0  0  0  0  0
   12.0728    5.6259    6.2158 H   0  0  0  0  0  0  0  0  0  0  0  0
   12.1494    4.4326    8.3514 H   0  0  0  0  0  0  0  0  0  0  0  0
   10.3936    4.6374    7.9222 H   0  0  0  0  0  0  0  0  0  0  0  0
  1  3  2  0
  1  4  1  0
  2  4  1  0
  1  5  1  0
  2  6  1  0
  5  6  1  0
  6  7  2  3
  5  8  1  0
  4 10  1  0
 10 11  2  0
 11 12  1  0
 12 13  2  0
 13 14  1  0
 10 15  1  0
 14 15  2  0
  9 16  2  0
  9 17  1  0
 14 18  1  0
 17 18  2  0
 18 19  1  0
 16 20  1  0
 19 20  2  0
  2 21  1  0
  7 22  1  0
  8 23  1  0
  8 24  1  0
  8 25  1  0
 11 26  1  0
 12 27  1  0
 13 28  1  0
 15 29  1  0
 16 30  1  0
 17 31  1  0
 19 32  1  0
 20 33  1  0
 34 35  1  0
 35 36  1  0
 36 37  1  0
 37 38  1  0
 38 39  1  0
 39 40  1  0
 40 35  1  0
 35 41  1  0
 36 42  1  0
 36 43  1  0
 37 44  1  0
 37 45  1  0
 38 46  1  0
 39 47  1  0
 39 48  1  0
 40 49  1  0
 40 50  1  0
  4 34  1  6
M  END
>  <attachment_point>  (263) 
21

>  <score>  (263) 
<NA>

$$$$
4djw
     RDKit          3D

 52 55  0  0  0  0  0  0  0  0999 V2000
   22.4950   11.8750   22.5810 C   0  0  0  0  0  0  0  0  0  0  0  0
   22.5380    9.4930   22.4640 N   0  0  0  0  0  0  0  0  0  0  0  0
   22.3600   13.0630   22.3480 O   0  0  0  0  0  0  0  0  0  0  0  0
   22.3390   10.6680   21.5610 C   0  0  2  0  0  0  0  0  0  0  0  0
   22.7860   11.3350   23.8120 N   0  0  0  0  0  0  0  0  0  0  0  0
   22.7800    9.9140   23.7010 C   0  0  0  0  0  0  0  0  0  0  0  0
   22.9970    9.1110   24.7490 N   0  0  0  0  0  0  0  0  0  0  0  0
   23.0220   12.1410   25.0180 C   0  0  0  0  0  0  0  0  0  0  0  0
   29.1260    9.8230   21.7090 N   0  0  0  0  0  0  0  0  0  0  0  0
   23.4880   10.6920   20.5300 C   0  0  0  0  0  0  0  0  0  0  0  0
   23.2110   10.7890   19.1730 C   0  0  0  0  0  0  0  0  0  0  0  0
   24.2350   10.8650   18.2430 C   0  0  0  0  0  0  0  0  0  0  0  0
   25.5500   10.8410   18.6560 C   0  0  0  0  0  0  0  0  0  0  0  0
   25.8710   10.7460   20.0070 C   0  0  0  0  0  0  0  0  0  0  0  0
   24.8260   10.6610   20.9430 C   0  0  0  0  0  0  0  0  0  0  0  0
   29.8540   10.9130   21.4510 C   0  0  0  0  0  0  0  0  0  0  0  0
   27.8830    9.7800   21.2080 C   0  0  0  0  0  0  0  0  0  0  0  0
   27.3000   10.8010   20.4650 C   0  0  0  0  0  0  0  0  0  0  0  0
   28.0930   11.9190   20.2200 C   0  0  0  0  0  0  0  0  0  0  0  0
   29.3850   11.9780   20.7130 C   0  0  0  0  0  0  0  0  0  0  0  0
    0.0000    0.0000    0.0000 H   0  0  0  0  0  0  0  0  0  0  0  0
    0.0000    0.0000    0.0000 H   0  0  0  0  0  0  0  0  0  0  0  0
    0.0000    0.0000    0.0000 H   0  0  0  0  0  0  0  0  0  0  0  0
    0.0000    0.0000    0.0000 H   0  0  0  0  0  0  0  0  0  0  0  0
    0.0000    0.0000    0.0000 H   0  0  0  0  0  0  0  0  0  0  0  0
    0.0000    0.0000    0.0000 H   0  0  0  0  0  0  0  0  0  0  0  0
    0.0000    0.0000    0.0000 H   0  0  0  0  0  0  0  0  0  0  0  0
    0.0000    0.0000    0.0000 H   0  0  0  0  0  0  0  0  0  0  0  0
    0.0000    0.0000    0.0000 H   0  0  0  0  0  0  0  0  0  0  0  0
    0.0000    0.0000    0.0000 H   0  0  0  0  0  0  0  0  0  0  0  0
    0.0000    0.0000    0.0000 H   0  0  0  0  0  0  0  0  0  0  0  0
    0.0000    0.0000    0.0000 H   0  0  0  0  0  0  0  0  0  0  0  0
    0.0000    0.0000    0.0000 H   0  0  0  0  0  0  0  0  0  0  0  0
   10.7386    5.1282   10.3646 C   0  0  0  0  0  0  0  0  0  0  0  0
   10.0164    4.6104   11.4465 N   0  0  0  0  0  0  0  0  0  0  0  0
    9.6264    5.6099   12.3626 C   0  0  0  0  0  0  0  0  0  0  0  0
    8.8282    5.0449   13.5489 C   0  0  0  0  0  0  0  0  0  0  0  0
    8.5049    6.3668   14.2439 C   0  0  0  0  0  0  0  0  0  0  0  0
    8.2501    7.3379   13.1057 C   0  0  0  0  0  0  0  0  0  0  0  0
    8.5973    6.5863   11.8331 C   0  0  0  0  0  0  0  0  0  0  0  0
   10.6516    6.1649   10.1174 H   0  0  0  0  0  0  0  0  0  0  0  0
   11.5683    4.5608    9.9732 H   0  0  0  0  0  0  0  0  0  0  0  0
    9.3934    3.8342   11.2677 H   0  0  0  0  0  0  0  0  0  0  0  0
   10.4571    6.2081   12.7756 H   0  0  0  0  0  0  0  0  0  0  0  0
    9.4431    4.3902   14.1652 H   0  0  0  0  0  0  0  0  0  0  0  0
    7.9039    4.5794   13.1559 H   0  0  0  0  0  0  0  0  0  0  0  0
    9.4376    6.6520   14.8062 H   0  0  0  0  0  0  0  0  0  0  0  0
    7.6584    6.2841   14.9296 H   0  0  0  0  0  0  0  0  0  0  0  0
    7.2030    7.6991   13.1017 H   0  0  0  0  0  0  0  0  0  0  0  0
    8.9817    8.1698   13.1878 H   0  0  0  0  0  0  0  0  0  0  0  0
    7.7144    6.0412   11.4467 H   0  0  0  0  0  0  0  0  0  0  0  0
    9.0220    7.2952   11.1073 H   0  0  0  0  0  0  0  0  0  0  0  0
  1  3  2  0
  1  4  1  0
  2  4  1  0
  1  5  1  0
  2  6  1  0
  5  6  1  0
  6  7  2  3
  5  8  1  0
  4 10  1  0
 10 11  2  0
 11 12  1  0
 12 13  2  0
 13 14  1  0
 10 15  1  0
 14 15  2  0
  9 16  2  0
  9 17  1  0
 14 18  1  0
 17 18  2  0
 18 19  1  0
 16 20  1  0
 19 20  2  0
  2 21  1  0
  7 22  1  0
  8 23  1  0
  8 24  1  0
  8 25  1  0
 11 26  1  0
 12 27  1  0
 13 28  1  0
 15 29  1  0
 16 30  1  0
 17 31  1  0
 19 32  1  0
 20 33  1  0
 34 35  1  0
 35 36  1  0
 36 37  1  0
 37 38  1  0
 38 39  1  0
 39 40  1  0
 40 36  1  0
 34 41  1  0
 34 42  1  0
 35 43  1  0
 36 44  1  0
 37 45  1  0
 37 46  1  0
 38 47  1  0
 38 48  1  0
 39 49  1  0
 39 50  1  0
 40 51  1  0
 40 52  1  0
  4 34  1  6
M  END
>  <attachment_point>  (264) 
21

>  <score>  (264) 
<NA>

$$$$
4djw
     RDKit          3D

 46 48  0  0  0  0  0  0  0  0999 V2000
   22.4950   11.8750   22.5810 C   0  0  0  0  0  0  0  0  0  0  0  0
   22.5380    9.4930   22.4640 N   0  0  0  0  0  0  0  0  0  0  0  0
   22.3600   13.0630   22.3480 O   0  0  0  0  0  0  0  0  0  0  0  0
   22.3390   10.6680   21.5610 C   0  0  2  0  0  0  0  0  0  0  0  0
   22.7860   11.3350   23.8120 N   0  0  0  0  0  0  0  0  0  0  0  0
   22.7800    9.9140   23.7010 C   0  0  0  0  0  0  0  0  0  0  0  0
   22.9970    9.1110   24.7490 N   0  0  0  0  0  0  0  0  0  0  0  0
   23.0220   12.1410   25.0180 C   0  0  0  0  0  0  0  0  0  0  0  0
   29.1260    9.8230   21.7090 N   0  0  0  0  0  0  0  0  0  0  0  0
   23.4880   10.6920   20.5300 C   0  0  0  0  0  0  0  0  0  0  0  0
   23.2110   10.7890   19.1730 C   0  0  0  0  0  0  0  0  0  0  0  0
   24.2350   10.8650   18.2430 C   0  0  0  0  0  0  0  0  0  0  0  0
   25.5500   10.8410   18.6560 C   0  0  0  0  0  0  0  0  0  0  0  0
   25.8710   10.7460   20.0070 C   0  0  0  0  0  0  0  0  0  0  0  0
   24.8260   10.6610   20.9430 C   0  0  0  0  0  0  0  0  0  0  0  0
   29.8540   10.9130   21.4510 C   0  0  0  0  0  0  0  0  0  0  0  0
   27.8830    9.7800   21.2080 C   0  0  0  0  0  0  0  0  0  0  0  0
   27.3000   10.8010   20.4650 C   0  0  0  0  0  0  0  0  0  0  0  0
   28.0930   11.9190   20.2200 C   0  0  0  0  0  0  0  0  0  0  0  0
   29.3850   11.9780   20.7130 C   0  0  0  0  0  0  0  0  0  0  0  0
    0.0000    0.0000    0.0000 H   0  0  0  0  0  0  0  0  0  0  0  0
    0.0000    0.0000    0.0000 H   0  0  0  0  0  0  0  0  0  0  0  0
    0.0000    0.0000    0.0000 H   0  0  0  0  0  0  0  0  0  0  0  0
    0.0000    0.0000    0.0000 H   0  0  0  0  0  0  0  0  0  0  0  0
    0.0000    0.0000    0.0000 H   0  0  0  0  0  0  0  0  0  0  0  0
    0.0000    0.0000    0.0000 H   0  0  0  0  0  0  0  0  0  0  0  0
    0.0000    0.0000    0.0000 H   0  0  0  0  0  0  0  0  0  0  0  0
    0.0000    0.0000    0.0000 H   0  0  0  0  0  0  0  0  0  0  0  0
    0.0000    0.0000    0.0000 H   0  0  0  0  0  0  0  0  0  0  0  0
    0.0000    0.0000    0.0000 H   0  0  0  0  0  0  0  0  0  0  0  0
    0.0000    0.0000    0.0000 H   0  0  0  0  0  0  0  0  0  0  0  0
    0.0000    0.0000    0.0000 H   0  0  0  0  0  0  0  0  0  0  0  0
    0.0000    0.0000    0.0000 H   0  0  0  0  0  0  0  0  0  0  0  0
   10.8717    5.1918   10.4931 N   0  0  0  0  0  0  0  0  0  0  0  0
    9.6458    5.9344   10.8377 C   0  0  0  0  0  0  0  0  0  0  0  0
    9.2638    5.6042   12.2732 C   0  0  0  0  0  0  0  0  0  0  0  0
    9.0239    4.2551   12.4572 O   0  0  0  0  0  0  0  0  0  0  0  0
    7.9926    3.7769   11.6660 C   0  0  0  0  0  0  0  0  0  0  0  0
   10.6880    4.2067   10.7716 H   0  0  0  0  0  0  0  0  0  0  0  0
    8.8546    5.7418   10.1186 H   0  0  0  0  0  0  0  0  0  0  0  0
    9.9211    6.9944   10.7943 H   0  0  0  0  0  0  0  0  0  0  0  0
   10.1818    5.8413   12.8849 H   0  0  0  0  0  0  0  0  0  0  0  0
    8.4749    6.2545   12.6396 H   0  0  0  0  0  0  0  0  0  0  0  0
    7.8998    2.6807   11.9080 H   0  0  0  0  0  0  0  0  0  0  0  0
    7.0137    4.2151   11.9231 H   0  0  0  0  0  0  0  0  0  0  0  0
    8.2444    3.8534   10.5918 H   0  0  0  0  0  0  0  0  0  0  0  0
  1  3  2  0
  1  4  1  0
  2  4  1  0
  1  5  1  0
  2  6  1  0
  5  6  1  0
  6  7  2  3
  5  8  1  0
  4 10  1  0
 10 11  2  0
 11 12  1  0
 12 13  2  0
 13 14  1  0
 10 15  1  0
 14 15  2  0
  9 16  2  0
  9 17  1  0
 14 18  1  0
 17 18  2  0
 18 19  1  0
 16 20  1  0
 19 20  2  0
  2 21  1  0
  7 22  1  0
  8 23  1  0
  8 24  1  0
  8 25  1  0
 11 26  1  0
 12 27  1  0
 13 28  1  0
 15 29  1  0
 16 30  1  0
 17 31  1  0
 19 32  1  0
 20 33  1  0
 34 35  1  0
 35 36  1  0
 36 37  1  0
 37 38  1  0
 34 39  1  0
 35 40  1  0
 35 41  1  0
 36 42  1  0
 36 43  1  0
 38 44  1  0
 38 45  1  0
 38 46  1  0
  4 34  1  6
M  END
>  <attachment_point>  (265) 
21

>  <score>  (265) 
<NA>

$$$$
4djw
     RDKit          3D

 42 44  0  0  0  0  0  0  0  0999 V2000
   22.4950   11.8750   22.5810 C   0  0  0  0  0  0  0  0  0  0  0  0
   22.5380    9.4930   22.4640 N   0  0  0  0  0  0  0  0  0  0  0  0
   22.3600   13.0630   22.3480 O   0  0  0  0  0  0  0  0  0  0  0  0
   22.3390   10.6680   21.5610 C   0  0  2  0  0  0  0  0  0  0  0  0
   22.7860   11.3350   23.8120 N   0  0  0  0  0  0  0  0  0  0  0  0
   22.7800    9.9140   23.7010 C   0  0  0  0  0  0  0  0  0  0  0  0
   22.9970    9.1110   24.7490 N   0  0  0  0  0  0  0  0  0  0  0  0
   23.0220   12.1410   25.0180 C   0  0  0  0  0  0  0  0  0  0  0  0
   29.1260    9.8230   21.7090 N   0  0  0  0  0  0  0  0  0  0  0  0
   23.4880   10.6920   20.5300 C   0  0  0  0  0  0  0  0  0  0  0  0
   23.2110   10.7890   19.1730 C   0  0  0  0  0  0  0  0  0  0  0  0
   24.2350   10.8650   18.2430 C   0  0  0  0  0  0  0  0  0  0  0  0
   25.5500   10.8410   18.6560 C   0  0  0  0  0  0  0  0  0  0  0  0
   25.8710   10.7460   20.0070 C   0  0  0  0  0  0  0  0  0  0  0  0
   24.8260   10.6610   20.9430 C   0  0  0  0  0  0  0  0  0  0  0  0
   29.8540   10.9130   21.4510 C   0  0  0  0  0  0  0  0  0  0  0  0
   27.8830    9.7800   21.2080 C   0  0  0  0  0  0  0  0  0  0  0  0
   27.3000   10.8010   20.4650 C   0  0  0  0  0  0  0  0  0  0  0  0
   28.0930   11.9190   20.2200 C   0  0  0  0  0  0  0  0  0  0  0  0
   29.3850   11.9780   20.7130 C   0  0  0  0  0  0  0  0  0  0  0  0
    0.0000    0.0000    0.0000 H   0  0  0  0  0  0  0  0  0  0  0  0
    0.0000    0.0000    0.0000 H   0  0  0  0  0  0  0  0  0  0  0  0
    0.0000    0.0000    0.0000 H   0  0  0  0  0  0  0  0  0  0  0  0
    0.0000    0.0000    0.0000 H   0  0  0  0  0  0  0  0  0  0  0  0
    0.0000    0.0000    0.0000 H   0  0  0  0  0  0  0  0  0  0  0  0
    0.0000    0.0000    0.0000 H   0  0  0  0  0  0  0  0  0  0  0  0
    0.0000    0.0000    0.0000 H   0  0  0  0  0  0  0  0  0  0  0  0
    0.0000    0.0000    0.0000 H   0  0  0  0  0  0  0  0  0  0  0  0
    0.0000    0.0000    0.0000 H   0  0  0  0  0  0  0  0  0  0  0  0
    0.0000    0.0000    0.0000 H   0  0  0  0  0  0  0  0  0  0  0  0
    0.0000    0.0000    0.0000 H   0  0  0  0  0  0  0  0  0  0  0  0
    0.0000    0.0000    0.0000 H   0  0  0  0  0  0  0  0  0  0  0  0
    0.0000    0.0000    0.0000 H   0  0  0  0  0  0  0  0  0  0  0  0
   10.8965    5.2036   10.5170 C   0  0  0  0  0  0  0  0  0  0  0  0
    9.7984    5.7695   10.4731 O   0  0  0  0  0  0  0  0  0  0  0  0
   11.1227    4.0678    9.5889 C   0  0  0  0  0  0  0  0  0  0  0  0
    9.9083    3.1517    9.7551 C   0  0  0  0  0  0  0  0  0  0  0  0
   11.1715    4.4836    8.5560 H   0  0  0  0  0  0  0  0  0  0  0  0
   12.0097    3.4753    9.8725 H   0  0  0  0  0  0  0  0  0  0  0  0
    8.9661    3.6716    9.5284 H   0  0  0  0  0  0  0  0  0  0  0  0
    9.9499    2.8649   10.8528 H   0  0  0  0  0  0  0  0  0  0  0  0
   10.0988    2.2770    9.1444 H   0  0  0  0  0  0  0  0  0  0  0  0
  1  3  2  0
  1  4  1  0
  2  4  1  0
  1  5  1  0
  2  6  1  0
  5  6  1  0
  6  7  2  3
  5  8  1  0
  4 10  1  0
 10 11  2  0
 11 12  1  0
 12 13  2  0
 13 14  1  0
 10 15  1  0
 14 15  2  0
  9 16  2  0
  9 17  1  0
 14 18  1  0
 17 18  2  0
 18 19  1  0
 16 20  1  0
 19 20  2  0
  2 21  1  0
  7 22  1  0
  8 23  1  0
  8 24  1  0
  8 25  1  0
 11 26  1  0
 12 27  1  0
 13 28  1  0
 15 29  1  0
 16 30  1  0
 17 31  1  0
 19 32  1  0
 20 33  1  0
 34 35  2  0
 34 36  1  0
 36 37  1  0
 36 38  1  0
 36 39  1  0
 37 40  1  0
 37 41  1  0
 37 42  1  0
  4 34  1  6
M  END
>  <attachment_point>  (266) 
21

>  <score>  (266) 
<NA>

$$$$
4djw
     RDKit          3D

 44 47  0  0  0  0  0  0  0  0999 V2000
   22.4950   11.8750   22.5810 C   0  0  0  0  0  0  0  0  0  0  0  0
   22.5380    9.4930   22.4640 N   0  0  0  0  0  0  0  0  0  0  0  0
   22.3600   13.0630   22.3480 O   0  0  0  0  0  0  0  0  0  0  0  0
   22.3390   10.6680   21.5610 C   0  0  2  0  0  0  0  0  0  0  0  0
   22.7860   11.3350   23.8120 N   0  0  0  0  0  0  0  0  0  0  0  0
   22.7800    9.9140   23.7010 C   0  0  0  0  0  0  0  0  0  0  0  0
   22.9970    9.1110   24.7490 N   0  0  0  0  0  0  0  0  0  0  0  0
   23.0220   12.1410   25.0180 C   0  0  0  0  0  0  0  0  0  0  0  0
   29.1260    9.8230   21.7090 N   0  0  0  0  0  0  0  0  0  0  0  0
   23.4880   10.6920   20.5300 C   0  0  0  0  0  0  0  0  0  0  0  0
   23.2110   10.7890   19.1730 C   0  0  0  0  0  0  0  0  0  0  0  0
   24.2350   10.8650   18.2430 C   0  0  0  0  0  0  0  0  0  0  0  0
   25.5500   10.8410   18.6560 C   0  0  0  0  0  0  0  0  0  0  0  0
   25.8710   10.7460   20.0070 C   0  0  0  0  0  0  0  0  0  0  0  0
   24.8260   10.6610   20.9430 C   0  0  0  0  0  0  0  0  0  0  0  0
   29.8540   10.9130   21.4510 C   0  0  0  0  0  0  0  0  0  0  0  0
   27.8830    9.7800   21.2080 C   0  0  0  0  0  0  0  0  0  0  0  0
   27.3000   10.8010   20.4650 C   0  0  0  0  0  0  0  0  0  0  0  0
   28.0930   11.9190   20.2200 C   0  0  0  0  0  0  0  0  0  0  0  0
   29.3850   11.9780   20.7130 C   0  0  0  0  0  0  0  0  0  0  0  0
    0.0000    0.0000    0.0000 H   0  0  0  0  0  0  0  0  0  0  0  0
    0.0000    0.0000    0.0000 H   0  0  0  0  0  0  0  0  0  0  0  0
    0.0000    0.0000    0.0000 H   0  0  0  0  0  0  0  0  0  0  0  0
    0.0000    0.0000    0.0000 H   0  0  0  0  0  0  0  0  0  0  0  0
    0.0000    0.0000    0.0000 H   0  0  0  0  0  0  0  0  0  0  0  0
    0.0000    0.0000    0.0000 H   0  0  0  0  0  0  0  0  0  0  0  0
    0.0000    0.0000    0.0000 H   0  0  0  0  0  0  0  0  0  0  0  0
    0.0000    0.0000    0.0000 H   0  0  0  0  0  0  0  0  0  0  0  0
    0.0000    0.0000    0.0000 H   0  0  0  0  0  0  0  0  0  0  0  0
    0.0000    0.0000    0.0000 H   0  0  0  0  0  0  0  0  0  0  0  0
    0.0000    0.0000    0.0000 H   0  0  0  0  0  0  0  0  0  0  0  0
    0.0000    0.0000    0.0000 H   0  0  0  0  0  0  0  0  0  0  0  0
    0.0000    0.0000    0.0000 H   0  0  0  0  0  0  0  0  0  0  0  0
   10.8811    5.1963   10.5022 C   0  0  0  0  0  0  0  0  0  0  0  0
   11.1300    4.9078    9.1737 C   0  0  0  0  0  0  0  0  0  0  0  0
    9.9085    4.4990    8.6662 C   0  0  0  0  0  0  0  0  0  0  0  0
    9.0259    4.5603    9.6736 N   0  0  0  0  0  0  0  0  0  0  0  0
    9.5811    4.9754   10.7873 N   0  0  0  0  0  0  0  0  0  0  0  0
    8.9334    5.1670   12.0915 C   0  0  0  0  0  0  0  0  0  0  0  0
   12.0701    4.9830    8.6418 H   0  0  0  0  0  0  0  0  0  0  0  0
    9.7776    4.2019    7.6359 H   0  0  0  0  0  0  0  0  0  0  0  0
    8.4760    4.2464   12.4679 H   0  0  0  0  0  0  0  0  0  0  0  0
    9.6952    5.5599   12.8007 H   0  0  0  0  0  0  0  0  0  0  0  0
    8.1555    5.9781   12.0122 H   0  0  0  0  0  0  0  0  0  0  0  0
  1  3  2  0
  1  4  1  0
  2  4  1  0
  1  5  1  0
  2  6  1  0
  5  6  1  0
  6  7  2  3
  5  8  1  0
  4 10  1  6
 10 11  2  0
 11 12  1  0
 12 13  2  0
 13 14  1  0
 10 15  1  0
 14 15  2  0
  9 16  2  0
  9 17  1  0
 14 18  1  0
 17 18  2  0
 18 19  1  0
 16 20  1  0
 19 20  2  0
  2 21  1  0
  7 22  1  0
  8 23  1  0
  8 24  1  0
  8 25  1  0
 11 26  1  0
 12 27  1  0
 13 28  1  0
 15 29  1  0
 16 30  1  0
 17 31  1  0
 19 32  1  0
 20 33  1  0
 34 35  2  0
 35 36  1  0
 36 37  2  0
 37 38  1  0
 38 39  1  0
 38 34  1  0
 35 40  1  0
 36 41  1  0
 39 42  1  0
 39 43  1  0
 39 44  1  0
  4 34  1  0
M  END
>  <attachment_point>  (267) 
21

>  <score>  (267) 
<NA>

$$$$
4djw
     RDKit          3D

 48 51  0  0  0  0  0  0  0  0999 V2000
   22.4950   11.8750   22.5810 C   0  0  0  0  0  0  0  0  0  0  0  0
   22.5380    9.4930   22.4640 N   0  0  0  0  0  0  0  0  0  0  0  0
   22.3600   13.0630   22.3480 O   0  0  0  0  0  0  0  0  0  0  0  0
   22.3390   10.6680   21.5610 C   0  0  2  0  0  0  0  0  0  0  0  0
   22.7860   11.3350   23.8120 N   0  0  0  0  0  0  0  0  0  0  0  0
   22.7800    9.9140   23.7010 C   0  0  0  0  0  0  0  0  0  0  0  0
   22.9970    9.1110   24.7490 N   0  0  0  0  0  0  0  0  0  0  0  0
   23.0220   12.1410   25.0180 C   0  0  0  0  0  0  0  0  0  0  0  0
   29.1260    9.8230   21.7090 N   0  0  0  0  0  0  0  0  0  0  0  0
   23.4880   10.6920   20.5300 C   0  0  0  0  0  0  0  0  0  0  0  0
   23.2110   10.7890   19.1730 C   0  0  0  0  0  0  0  0  0  0  0  0
   24.2350   10.8650   18.2430 C   0  0  0  0  0  0  0  0  0  0  0  0
   25.5500   10.8410   18.6560 C   0  0  0  0  0  0  0  0  0  0  0  0
   25.8710   10.7460   20.0070 C   0  0  0  0  0  0  0  0  0  0  0  0
   24.8260   10.6610   20.9430 C   0  0  0  0  0  0  0  0  0  0  0  0
   29.8540   10.9130   21.4510 C   0  0  0  0  0  0  0  0  0  0  0  0
   27.8830    9.7800   21.2080 C   0  0  0  0  0  0  0  0  0  0  0  0
   27.3000   10.8010   20.4650 C   0  0  0  0  0  0  0  0  0  0  0  0
   28.0930   11.9190   20.2200 C   0  0  0  0  0  0  0  0  0  0  0  0
   29.3850   11.9780   20.7130 C   0  0  0  0  0  0  0  0  0  0  0  0
    0.0000    0.0000    0.0000 H   0  0  0  0  0  0  0  0  0  0  0  0
    0.0000    0.0000    0.0000 H   0  0  0  0  0  0  0  0  0  0  0  0
    0.0000    0.0000    0.0000 H   0  0  0  0  0  0  0  0  0  0  0  0
    0.0000    0.0000    0.0000 H   0  0  0  0  0  0  0  0  0  0  0  0
    0.0000    0.0000    0.0000 H   0  0  0  0  0  0  0  0  0  0  0  0
    0.0000    0.0000    0.0000 H   0  0  0  0  0  0  0  0  0  0  0  0
    0.0000    0.0000    0.0000 H   0  0  0  0  0  0  0  0  0  0  0  0
    0.0000    0.0000    0.0000 H   0  0  0  0  0  0  0  0  0  0  0  0
    0.0000    0.0000    0.0000 H   0  0  0  0  0  0  0  0  0  0  0  0
    0.0000    0.0000    0.0000 H   0  0  0  0  0  0  0  0  0  0  0  0
    0.0000    0.0000    0.0000 H   0  0  0  0  0  0  0  0  0  0  0  0
    0.0000    0.0000    0.0000 H   0  0  0  0  0  0  0  0  0  0  0  0
    0.0000    0.0000    0.0000 H   0  0  0  0  0  0  0  0  0  0  0  0
   10.8599    5.1862   10.4817 C   0  0  0  0  0  0  0  0  0  0  0  0
    9.6984    5.1030   10.9050 O   0  0  0  0  0  0  0  0  0  0  0  0
   11.1652    4.8378    9.1578 N   0  0  0  0  0  0  0  0  0  0  0  0
   10.1873    4.3760    8.2309 C   0  0  0  0  0  0  0  0  0  0  0  0
    9.8674    3.0434    8.0711 C   0  0  0  0  0  0  0  0  0  0  0  0
    8.9034    2.6343    7.1517 C   0  0  0  0  0  0  0  0  0  0  0  0
    8.2356    3.5533    6.3689 C   0  0  0  0  0  0  0  0  0  0  0  0
    7.0183    3.0451    5.2069 Cl  0  0  0  0  0  0  0  0  0  0  0  0
    8.5499    4.8867    6.5230 C   0  0  0  0  0  0  0  0  0  0  0  0
    9.5096    5.2803    7.4399 C   0  0  0  0  0  0  0  0  0  0  0  0
   12.1762    4.9317    8.8601 H   0  0  0  0  0  0  0  0  0  0  0  0
   10.3990    2.3246    8.6926 H   0  0  0  0  0  0  0  0  0  0  0  0
    8.6695    1.5885    7.0435 H   0  0  0  0  0  0  0  0  0  0  0  0
    8.0295    5.6214    5.9107 H   0  0  0  0  0  0  0  0  0  0  0  0
    9.7590    6.3469    7.5611 H   0  0  0  0  0  0  0  0  0  0  0  0
  1  3  2  0
  1  4  1  0
  2  4  1  0
  1  5  1  0
  2  6  1  0
  5  6  1  0
  6  7  2  3
  5  8  1  0
  4 10  1  0
 10 11  2  0
 11 12  1  0
 12 13  2  0
 13 14  1  0
 10 15  1  0
 14 15  2  0
  9 16  2  0
  9 17  1  0
 14 18  1  0
 17 18  2  0
 18 19  1  0
 16 20  1  0
 19 20  2  0
  2 21  1  0
  7 22  1  0
  8 23  1  0
  8 24  1  0
  8 25  1  0
 11 26  1  0
 12 27  1  0
 13 28  1  0
 15 29  1  0
 16 30  1  0
 17 31  1  0
 19 32  1  0
 20 33  1  0
 34 35  2  0
 34 36  1  0
 36 37  1  0
 37 38  2  0
 38 39  1  0
 39 40  2  0
 40 41  1  0
 40 42  1  0
 42 43  2  0
 43 37  1  0
 36 44  1  0
 38 45  1  0
 39 46  1  0
 42 47  1  0
 43 48  1  0
  4 34  1  6
M  END
>  <attachment_point>  (268) 
21

>  <score>  (268) 
<NA>

$$$$
4djw
     RDKit          3D

 40 42  0  0  0  0  0  0  0  0999 V2000
   22.4950   11.8750   22.5810 C   0  0  0  0  0  0  0  0  0  0  0  0
   22.5380    9.4930   22.4640 N   0  0  0  0  0  0  0  0  0  0  0  0
   22.3600   13.0630   22.3480 O   0  0  0  0  0  0  0  0  0  0  0  0
   22.3390   10.6680   21.5610 C   0  0  2  0  0  0  0  0  0  0  0  0
   22.7860   11.3350   23.8120 N   0  0  0  0  0  0  0  0  0  0  0  0
   22.7800    9.9140   23.7010 C   0  0  0  0  0  0  0  0  0  0  0  0
   22.9970    9.1110   24.7490 N   0  0  0  0  0  0  0  0  0  0  0  0
   23.0220   12.1410   25.0180 C   0  0  0  0  0  0  0  0  0  0  0  0
   29.1260    9.8230   21.7090 N   0  0  0  0  0  0  0  0  0  0  0  0
   23.4880   10.6920   20.5300 C   0  0  0  0  0  0  0  0  0  0  0  0
   23.2110   10.7890   19.1730 C   0  0  0  0  0  0  0  0  0  0  0  0
   24.2350   10.8650   18.2430 C   0  0  0  0  0  0  0  0  0  0  0  0
   25.5500   10.8410   18.6560 C   0  0  0  0  0  0  0  0  0  0  0  0
   25.8710   10.7460   20.0070 C   0  0  0  0  0  0  0  0  0  0  0  0
   24.8260   10.6610   20.9430 C   0  0  0  0  0  0  0  0  0  0  0  0
   29.8540   10.9130   21.4510 C   0  0  0  0  0  0  0  0  0  0  0  0
   27.8830    9.7800   21.2080 C   0  0  0  0  0  0  0  0  0  0  0  0
   27.3000   10.8010   20.4650 C   0  0  0  0  0  0  0  0  0  0  0  0
   28.0930   11.9190   20.2200 C   0  0  0  0  0  0  0  0  0  0  0  0
   29.3850   11.9780   20.7130 C   0  0  0  0  0  0  0  0  0  0  0  0
    0.0000    0.0000    0.0000 H   0  0  0  0  0  0  0  0  0  0  0  0
    0.0000    0.0000    0.0000 H   0  0  0  0  0  0  0  0  0  0  0  0
    0.0000    0.0000    0.0000 H   0  0  0  0  0  0  0  0  0  0  0  0
    0.0000    0.0000    0.0000 H   0  0  0  0  0  0  0  0  0  0  0  0
    0.0000    0.0000    0.0000 H   0  0  0  0  0  0  0  0  0  0  0  0
    0.0000    0.0000    0.0000 H   0  0  0  0  0  0  0  0  0  0  0  0
    0.0000    0.0000    0.0000 H   0  0  0  0  0  0  0  0  0  0  0  0
    0.0000    0.0000    0.0000 H   0  0  0  0  0  0  0  0  0  0  0  0
    0.0000    0.0000    0.0000 H   0  0  0  0  0  0  0  0  0  0  0  0
    0.0000    0.0000    0.0000 H   0  0  0  0  0  0  0  0  0  0  0  0
    0.0000    0.0000    0.0000 H   0  0  0  0  0  0  0  0  0  0  0  0
    0.0000    0.0000    0.0000 H   0  0  0  0  0  0  0  0  0  0  0  0
    0.0000    0.0000    0.0000 H   0  0  0  0  0  0  0  0  0  0  0  0
   10.7817    5.1488   10.4062 O   0  0  0  0  0  0  0  0  0  0  0  0
    9.6332    5.5153   11.0442 C   0  0  0  0  0  0  0  0  0  0  0  0
    8.2879    5.2470   10.4601 C   0  0  0  0  0  0  0  0  0  0  0  0
    9.6266    6.0977   12.1553 O   0  0  0  0  0  0  0  0  0  0  0  0
    8.3334    4.9542    9.3979 H   0  0  0  0  0  0  0  0  0  0  0  0
    7.6766    6.1567   10.6112 H   0  0  0  0  0  0  0  0  0  0  0  0
    7.8287    4.4541   11.0814 H   0  0  0  0  0  0  0  0  0  0  0  0
  1  3  2  0
  1  4  1  0
  2  4  1  0
  1  5  1  0
  2  6  1  0
  5  6  1  0
  6  7  2  3
  5  8  1  0
  4 10  1  0
 10 11  2  0
 11 12  1  0
 12 13  2  0
 13 14  1  0
 10 15  1  0
 14 15  2  0
  9 16  2  0
  9 17  1  0
 14 18  1  0
 17 18  2  0
 18 19  1  0
 16 20  1  0
 19 20  2  0
  2 21  1  0
  7 22  1  0
  8 23  1  0
  8 24  1  0
  8 25  1  0
 11 26  1  0
 12 27  1  0
 13 28  1  0
 15 29  1  0
 16 30  1  0
 17 31  1  0
 19 32  1  0
 20 33  1  0
 34 35  1  0
 35 36  1  0
 35 37  2  0
 36 38  1  0
 36 39  1  0
 36 40  1  0
  4 34  1  6
M  END
>  <attachment_point>  (269) 
21

>  <score>  (269) 
<NA>

$$$$
4djw
     RDKit          3D

 43 46  0  0  0  0  0  0  0  0999 V2000
   22.4950   11.8750   22.5810 C   0  0  0  0  0  0  0  0  0  0  0  0
   22.5380    9.4930   22.4640 N   0  0  0  0  0  0  0  0  0  0  0  0
   22.3600   13.0630   22.3480 O   0  0  0  0  0  0  0  0  0  0  0  0
   22.3390   10.6680   21.5610 C   0  0  2  0  0  0  0  0  0  0  0  0
   22.7860   11.3350   23.8120 N   0  0  0  0  0  0  0  0  0  0  0  0
   22.7800    9.9140   23.7010 C   0  0  0  0  0  0  0  0  0  0  0  0
   22.9970    9.1110   24.7490 N   0  0  0  0  0  0  0  0  0  0  0  0
   23.0220   12.1410   25.0180 C   0  0  0  0  0  0  0  0  0  0  0  0
   29.1260    9.8230   21.7090 N   0  0  0  0  0  0  0  0  0  0  0  0
   23.4880   10.6920   20.5300 C   0  0  0  0  0  0  0  0  0  0  0  0
   23.2110   10.7890   19.1730 C   0  0  0  0  0  0  0  0  0  0  0  0
   24.2350   10.8650   18.2430 C   0  0  0  0  0  0  0  0  0  0  0  0
   25.5500   10.8410   18.6560 C   0  0  0  0  0  0  0  0  0  0  0  0
   25.8710   10.7460   20.0070 C   0  0  0  0  0  0  0  0  0  0  0  0
   24.8260   10.6610   20.9430 C   0  0  0  0  0  0  0  0  0  0  0  0
   29.8540   10.9130   21.4510 C   0  0  0  0  0  0  0  0  0  0  0  0
   27.8830    9.7800   21.2080 C   0  0  0  0  0  0  0  0  0  0  0  0
   27.3000   10.8010   20.4650 C   0  0  0  0  0  0  0  0  0  0  0  0
   28.0930   11.9190   20.2200 C   0  0  0  0  0  0  0  0  0  0  0  0
   29.3850   11.9780   20.7130 C   0  0  0  0  0  0  0  0  0  0  0  0
    0.0000    0.0000    0.0000 H   0  0  0  0  0  0  0  0  0  0  0  0
    0.0000    0.0000    0.0000 H   0  0  0  0  0  0  0  0  0  0  0  0
    0.0000    0.0000    0.0000 H   0  0  0  0  0  0  0  0  0  0  0  0
    0.0000    0.0000    0.0000 H   0  0  0  0  0  0  0  0  0  0  0  0
    0.0000    0.0000    0.0000 H   0  0  0  0  0  0  0  0  0  0  0  0
    0.0000    0.0000    0.0000 H   0  0  0  0  0  0  0  0  0  0  0  0
    0.0000    0.0000    0.0000 H   0  0  0  0  0  0  0  0  0  0  0  0
    0.0000    0.0000    0.0000 H   0  0  0  0  0  0  0  0  0  0  0  0
    0.0000    0.0000    0.0000 H   0  0  0  0  0  0  0  0  0  0  0  0
    0.0000    0.0000    0.0000 H   0  0  0  0  0  0  0  0  0  0  0  0
    0.0000    0.0000    0.0000 H   0  0  0  0  0  0  0  0  0  0  0  0
    0.0000    0.0000    0.0000 H   0  0  0  0  0  0  0  0  0  0  0  0
    0.0000    0.0000    0.0000 H   0  0  0  0  0  0  0  0  0  0  0  0
   10.8468    5.1799   10.4690 C   0  0  0  0  0  0  0  0  0  0  0  0
   10.0423    6.1552    9.9313 C   0  0  0  0  0  0  0  0  0  0  0  0
    9.0724    5.7489    9.0053 C   0  0  0  0  0  0  0  0  0  0  0  0
    8.9938    4.4084    8.7007 C   0  0  0  0  0  0  0  0  0  0  0  0
    7.7861    3.8653    7.5410 Cl  0  0  0  0  0  0  0  0  0  0  0  0
    9.8142    3.5033    9.2647 N   0  0  0  0  0  0  0  0  0  0  0  0
   10.7706    3.8567   10.1697 C   0  0  0  0  0  0  0  0  0  0  0  0
   10.1311    7.2120   10.1950 H   0  0  0  0  0  0  0  0  0  0  0  0
    8.4233    6.4879    8.5628 H   0  0  0  0  0  0  0  0  0  0  0  0
   11.4204    3.1223   10.6133 H   0  0  0  0  0  0  0  0  0  0  0  0
  1  3  2  0
  1  4  1  0
  2  4  1  0
  1  5  1  0
  2  6  1  0
  5  6  1  0
  6  7  2  3
  5  8  1  0
  4 10  1  6
 10 11  2  0
 11 12  1  0
 12 13  2  0
 13 14  1  0
 10 15  1  0
 14 15  2  0
  9 16  2  0
  9 17  1  0
 14 18  1  0
 17 18  2  0
 18 19  1  0
 16 20  1  0
 19 20  2  0
  2 21  1  0
  7 22  1  0
  8 23  1  0
  8 24  1  0
  8 25  1  0
 11 26  1  0
 12 27  1  0
 13 28  1  0
 15 29  1  0
 16 30  1  0
 17 31  1  0
 19 32  1  0
 20 33  1  0
 34 35  2  0
 35 36  1  0
 36 37  2  0
 37 38  1  0
 37 39  1  0
 39 40  2  0
 40 34  1  0
 35 41  1  0
 36 42  1  0
 40 43  1  0
  4 34  1  0
M  END
>  <attachment_point>  (270) 
21

>  <score>  (270) 
<NA>

$$$$
4djw
     RDKit          3D

 51 53  0  0  0  0  0  0  0  0999 V2000
   22.4950   11.8750   22.5810 C   0  0  0  0  0  0  0  0  0  0  0  0
   22.5380    9.4930   22.4640 N   0  0  0  0  0  0  0  0  0  0  0  0
   22.3600   13.0630   22.3480 O   0  0  0  0  0  0  0  0  0  0  0  0
   22.3390   10.6680   21.5610 C   0  0  2  0  0  0  0  0  0  0  0  0
   22.7860   11.3350   23.8120 N   0  0  0  0  0  0  0  0  0  0  0  0
   22.7800    9.9140   23.7010 C   0  0  0  0  0  0  0  0  0  0  0  0
   22.9970    9.1110   24.7490 N   0  0  0  0  0  0  0  0  0  0  0  0
   23.0220   12.1410   25.0180 C   0  0  0  0  0  0  0  0  0  0  0  0
   29.1260    9.8230   21.7090 N   0  0  0  0  0  0  0  0  0  0  0  0
   23.4880   10.6920   20.5300 C   0  0  0  0  0  0  0  0  0  0  0  0
   23.2110   10.7890   19.1730 C   0  0  0  0  0  0  0  0  0  0  0  0
   24.2350   10.8650   18.2430 C   0  0  0  0  0  0  0  0  0  0  0  0
   25.5500   10.8410   18.6560 C   0  0  0  0  0  0  0  0  0  0  0  0
   25.8710   10.7460   20.0070 C   0  0  0  0  0  0  0  0  0  0  0  0
   24.8260   10.6610   20.9430 C   0  0  0  0  0  0  0  0  0  0  0  0
   29.8540   10.9130   21.4510 C   0  0  0  0  0  0  0  0  0  0  0  0
   27.8830    9.7800   21.2080 C   0  0  0  0  0  0  0  0  0  0  0  0
   27.3000   10.8010   20.4650 C   0  0  0  0  0  0  0  0  0  0  0  0
   28.0930   11.9190   20.2200 C   0  0  0  0  0  0  0  0  0  0  0  0
   29.3850   11.9780   20.7130 C   0  0  0  0  0  0  0  0  0  0  0  0
    0.0000    0.0000    0.0000 H   0  0  0  0  0  0  0  0  0  0  0  0
    0.0000    0.0000    0.0000 H   0  0  0  0  0  0  0  0  0  0  0  0
    0.0000    0.0000    0.0000 H   0  0  0  0  0  0  0  0  0  0  0  0
    0.0000    0.0000    0.0000 H   0  0  0  0  0  0  0  0  0  0  0  0
    0.0000    0.0000    0.0000 H   0  0  0  0  0  0  0  0  0  0  0  0
    0.0000    0.0000    0.0000 H   0  0  0  0  0  0  0  0  0  0  0  0
    0.0000    0.0000    0.0000 H   0  0  0  0  0  0  0  0  0  0  0  0
    0.0000    0.0000    0.0000 H   0  0  0  0  0  0  0  0  0  0  0  0
    0.0000    0.0000    0.0000 H   0  0  0  0  0  0  0  0  0  0  0  0
    0.0000    0.0000    0.0000 H   0  0  0  0  0  0  0  0  0  0  0  0
    0.0000    0.0000    0.0000 H   0  0  0  0  0  0  0  0  0  0  0  0
    0.0000    0.0000    0.0000 H   0  0  0  0  0  0  0  0  0  0  0  0
    0.0000    0.0000    0.0000 H   0  0  0  0  0  0  0  0  0  0  0  0
   10.8881    5.1996   10.5089 C   0  0  0  0  0  0  0  0  0  0  0  0
   11.4391    5.1906    9.1222 C   0  0  0  0  0  0  0  0  0  0  0  0
   12.6236    4.3154    8.8992 C   0  0  0  0  0  0  0  0  0  0  0  0
   13.7995    4.6683    9.6263 N   0  0  0  0  0  0  0  0  0  0  0  0
   14.9212    3.9373    9.0645 C   0  0  0  0  0  0  0  0  0  0  0  0
   14.1344    6.0545    9.6194 C   0  0  0  0  0  0  0  0  0  0  0  0
    9.9827    5.8505   10.4959 H   0  0  0  0  0  0  0  0  0  0  0  0
   10.5295    4.2071   10.8588 H   0  0  0  0  0  0  0  0  0  0  0  0
   11.6413    6.2443    8.8230 H   0  0  0  0  0  0  0  0  0  0  0  0
   10.6457    4.8563    8.4137 H   0  0  0  0  0  0  0  0  0  0  0  0
   12.3161    3.3022    9.3192 H   0  0  0  0  0  0  0  0  0  0  0  0
   12.7676    4.1365    7.8291 H   0  0  0  0  0  0  0  0  0  0  0  0
   15.2586    4.4921    8.1485 H   0  0  0  0  0  0  0  0  0  0  0  0
   14.6751    2.8952    8.8108 H   0  0  0  0  0  0  0  0  0  0  0  0
   15.7538    4.0214    9.7901 H   0  0  0  0  0  0  0  0  0  0  0  0
   14.4455    6.4047    8.5940 H   0  0  0  0  0  0  0  0  0  0  0  0
   15.0283    6.1804   10.2653 H   0  0  0  0  0  0  0  0  0  0  0  0
   13.3021    6.7106    9.9497 H   0  0  0  0  0  0  0  0  0  0  0  0
  1  3  2  0
  1  4  1  0
  2  4  1  0
  1  5  1  0
  2  6  1  0
  5  6  1  0
  6  7  2  3
  5  8  1  0
  4 10  1  0
 10 11  2  0
 11 12  1  0
 12 13  2  0
 13 14  1  0
 10 15  1  0
 14 15  2  0
  9 16  2  0
  9 17  1  0
 14 18  1  0
 17 18  2  0
 18 19  1  0
 16 20  1  0
 19 20  2  0
  2 21  1  0
  7 22  1  0
  8 23  1  0
  8 24  1  0
  8 25  1  0
 11 26  1  0
 12 27  1  0
 13 28  1  0
 15 29  1  0
 16 30  1  0
 17 31  1  0
 19 32  1  0
 20 33  1  0
 34 35  1  0
 35 36  1  0
 36 37  1  0
 37 38  1  0
 37 39  1  0
 34 40  1  0
 34 41  1  0
 35 42  1  0
 35 43  1  0
 36 44  1  0
 36 45  1  0
 38 46  1  0
 38 47  1  0
 38 48  1  0
 39 49  1  0
 39 50  1  0
 39 51  1  0
  4 34  1  6
M  END
>  <attachment_point>  (271) 
21

>  <score>  (271) 
<NA>

$$$$
4djw
     RDKit          3D

 49 53  0  0  0  0  0  0  0  0999 V2000
   22.4950   11.8750   22.5810 C   0  0  0  0  0  0  0  0  0  0  0  0
   22.5380    9.4930   22.4640 N   0  0  0  0  0  0  0  0  0  0  0  0
   22.3600   13.0630   22.3480 O   0  0  0  0  0  0  0  0  0  0  0  0
   22.3390   10.6680   21.5610 C   0  0  2  0  0  0  0  0  0  0  0  0
   22.7860   11.3350   23.8120 N   0  0  0  0  0  0  0  0  0  0  0  0
   22.7800    9.9140   23.7010 C   0  0  0  0  0  0  0  0  0  0  0  0
   22.9970    9.1110   24.7490 N   0  0  0  0  0  0  0  0  0  0  0  0
   23.0220   12.1410   25.0180 C   0  0  0  0  0  0  0  0  0  0  0  0
   29.1260    9.8230   21.7090 N   0  0  0  0  0  0  0  0  0  0  0  0
   23.4880   10.6920   20.5300 C   0  0  0  0  0  0  0  0  0  0  0  0
   23.2110   10.7890   19.1730 C   0  0  0  0  0  0  0  0  0  0  0  0
   24.2350   10.8650   18.2430 C   0  0  0  0  0  0  0  0  0  0  0  0
   25.5500   10.8410   18.6560 C   0  0  0  0  0  0  0  0  0  0  0  0
   25.8710   10.7460   20.0070 C   0  0  0  0  0  0  0  0  0  0  0  0
   24.8260   10.6610   20.9430 C   0  0  0  0  0  0  0  0  0  0  0  0
   29.8540   10.9130   21.4510 C   0  0  0  0  0  0  0  0  0  0  0  0
   27.8830    9.7800   21.2080 C   0  0  0  0  0  0  0  0  0  0  0  0
   27.3000   10.8010   20.4650 C   0  0  0  0  0  0  0  0  0  0  0  0
   28.0930   11.9190   20.2200 C   0  0  0  0  0  0  0  0  0  0  0  0
   29.3850   11.9780   20.7130 C   0  0  0  0  0  0  0  0  0  0  0  0
    0.0000    0.0000    0.0000 H   0  0  0  0  0  0  0  0  0  0  0  0
    0.0000    0.0000    0.0000 H   0  0  0  0  0  0  0  0  0  0  0  0
    0.0000    0.0000    0.0000 H   0  0  0  0  0  0  0  0  0  0  0  0
    0.0000    0.0000    0.0000 H   0  0  0  0  0  0  0  0  0  0  0  0
    0.0000    0.0000    0.0000 H   0  0  0  0  0  0  0  0  0  0  0  0
    0.0000    0.0000    0.0000 H   0  0  0  0  0  0  0  0  0  0  0  0
    0.0000    0.0000    0.0000 H   0  0  0  0  0  0  0  0  0  0  0  0
    0.0000    0.0000    0.0000 H   0  0  0  0  0  0  0  0  0  0  0  0
    0.0000    0.0000    0.0000 H   0  0  0  0  0  0  0  0  0  0  0  0
    0.0000    0.0000    0.0000 H   0  0  0  0  0  0  0  0  0  0  0  0
    0.0000    0.0000    0.0000 H   0  0  0  0  0  0  0  0  0  0  0  0
    0.0000    0.0000    0.0000 H   0  0  0  0  0  0  0  0  0  0  0  0
    0.0000    0.0000    0.0000 H   0  0  0  0  0  0  0  0  0  0  0  0
   10.8432    5.1782   10.4656 C   0  0  0  0  0  0  0  0  0  0  0  0
   11.3303    4.6756    9.2781 C   0  0  0  0  0  0  0  0  0  0  0  0
   10.3912    4.2289    8.3753 C   0  0  0  0  0  0  0  0  0  0  0  0
    9.0290    4.2874    8.6593 C   0  0  0  0  0  0  0  0  0  0  0  0
    8.1033    3.8354    7.7431 C   0  0  0  0  0  0  0  0  0  0  0  0
    6.7437    3.8955    8.0303 C   0  0  0  0  0  0  0  0  0  0  0  0
    6.3584    4.4162    9.2472 C   0  0  0  0  0  0  0  0  0  0  0  0
    7.2962    4.8625   10.1493 C   0  0  0  0  0  0  0  0  0  0  0  0
    8.6651    4.8085    9.8749 C   0  0  0  0  0  0  0  0  0  0  0  0
    9.5653    5.2590   10.7901 N   0  0  0  0  0  0  0  0  0  0  0  0
   12.3930    4.6634    9.1321 H   0  0  0  0  0  0  0  0  0  0  0  0
   10.7500    3.8299    7.4358 H   0  0  0  0  0  0  0  0  0  0  0  0
    8.4098    3.4278    6.7899 H   0  0  0  0  0  0  0  0  0  0  0  0
    6.0080    3.5402    7.3112 H   0  0  0  0  0  0  0  0  0  0  0  0
    5.3029    4.4652    9.4755 H   0  0  0  0  0  0  0  0  0  0  0  0
    6.9755    5.2603   11.0820 H   0  0  0  0  0  0  0  0  0  0  0  0
  1  3  2  0
  1  4  1  0
  2  4  1  0
  1  5  1  0
  2  6  1  0
  5  6  1  0
  6  7  2  3
  5  8  1  0
  4 10  1  6
 10 11  2  0
 11 12  1  0
 12 13  2  0
 13 14  1  0
 10 15  1  0
 14 15  2  0
  9 16  2  0
  9 17  1  0
 14 18  1  0
 17 18  2  0
 18 19  1  0
 16 20  1  0
 19 20  2  0
  2 21  1  0
  7 22  1  0
  8 23  1  0
  8 24  1  0
  8 25  1  0
 11 26  1  0
 12 27  1  0
 13 28  1  0
 15 29  1  0
 16 30  1  0
 17 31  1  0
 19 32  1  0
 20 33  1  0
 34 35  2  0
 35 36  1  0
 36 37  2  0
 37 38  1  0
 38 39  2  0
 39 40  1  0
 40 41  2  0
 41 42  1  0
 42 43  2  0
 43 34  1  0
 42 37  1  0
 35 44  1  0
 36 45  1  0
 38 46  1  0
 39 47  1  0
 40 48  1  0
 41 49  1  0
  4 34  1  0
M  END
>  <attachment_point>  (272) 
21

>  <score>  (272) 
<NA>

$$$$
4djw
     RDKit          3D

 43 46  0  0  0  0  0  0  0  0999 V2000
   22.4950   11.8750   22.5810 C   0  0  0  0  0  0  0  0  0  0  0  0
   22.5380    9.4930   22.4640 N   0  0  0  0  0  0  0  0  0  0  0  0
   22.3600   13.0630   22.3480 O   0  0  0  0  0  0  0  0  0  0  0  0
   22.3390   10.6680   21.5610 C   0  0  2  0  0  0  0  0  0  0  0  0
   22.7860   11.3350   23.8120 N   0  0  0  0  0  0  0  0  0  0  0  0
   22.7800    9.9140   23.7010 C   0  0  0  0  0  0  0  0  0  0  0  0
   22.9970    9.1110   24.7490 N   0  0  0  0  0  0  0  0  0  0  0  0
   23.0220   12.1410   25.0180 C   0  0  0  0  0  0  0  0  0  0  0  0
   29.1260    9.8230   21.7090 N   0  0  0  0  0  0  0  0  0  0  0  0
   23.4880   10.6920   20.5300 C   0  0  0  0  0  0  0  0  0  0  0  0
   23.2110   10.7890   19.1730 C   0  0  0  0  0  0  0  0  0  0  0  0
   24.2350   10.8650   18.2430 C   0  0  0  0  0  0  0  0  0  0  0  0
   25.5500   10.8410   18.6560 C   0  0  0  0  0  0  0  0  0  0  0  0
   25.8710   10.7460   20.0070 C   0  0  0  0  0  0  0  0  0  0  0  0
   24.8260   10.6610   20.9430 C   0  0  0  0  0  0  0  0  0  0  0  0
   29.8540   10.9130   21.4510 C   0  0  0  0  0  0  0  0  0  0  0  0
   27.8830    9.7800   21.2080 C   0  0  0  0  0  0  0  0  0  0  0  0
   27.3000   10.8010   20.4650 C   0  0  0  0  0  0  0  0  0  0  0  0
   28.0930   11.9190   20.2200 C   0  0  0  0  0  0  0  0  0  0  0  0
   29.3850   11.9780   20.7130 C   0  0  0  0  0  0  0  0  0  0  0  0
    0.0000    0.0000    0.0000 H   0  0  0  0  0  0  0  0  0  0  0  0
    0.0000    0.0000    0.0000 H   0  0  0  0  0  0  0  0  0  0  0  0
    0.0000    0.0000    0.0000 H   0  0  0  0  0  0  0  0  0  0  0  0
    0.0000    0.0000    0.0000 H   0  0  0  0  0  0  0  0  0  0  0  0
    0.0000    0.0000    0.0000 H   0  0  0  0  0  0  0  0  0  0  0  0
    0.0000    0.0000    0.0000 H   0  0  0  0  0  0  0  0  0  0  0  0
    0.0000    0.0000    0.0000 H   0  0  0  0  0  0  0  0  0  0  0  0
    0.0000    0.0000    0.0000 H   0  0  0  0  0  0  0  0  0  0  0  0
    0.0000    0.0000    0.0000 H   0  0  0  0  0  0  0  0  0  0  0  0
    0.0000    0.0000    0.0000 H   0  0  0  0  0  0  0  0  0  0  0  0
    0.0000    0.0000    0.0000 H   0  0  0  0  0  0  0  0  0  0  0  0
    0.0000    0.0000    0.0000 H   0  0  0  0  0  0  0  0  0  0  0  0
    0.0000    0.0000    0.0000 H   0  0  0  0  0  0  0  0  0  0  0  0
   10.8003    5.1577   10.4241 C   0  0  0  0  0  0  0  0  0  0  0  0
    9.6362    5.5970   10.6846 C   0  0  0  0  0  0  0  0  0  0  0  0
    9.1425    6.6921   12.0587 S   0  0  0  0  0  0  0  0  0  0  0  0
    7.4052    6.2843   11.9435 C   0  0  0  0  0  0  0  0  0  0  0  0
    6.5187    6.4466   12.8123 O   0  0  0  0  0  0  0  0  0  0  0  0
    7.2293    5.7400   10.6722 N   0  0  0  0  0  0  0  0  0  0  0  0
    8.3654    5.3730    9.9919 C   0  0  0  0  0  0  0  0  0  0  0  0
    8.4066    4.8594    8.8212 O   0  0  0  0  0  0  0  0  0  0  0  0
   11.2716    4.5761    9.7571 H   0  0  0  0  0  0  0  0  0  0  0  0
    6.2491    5.6216   10.2623 H   0  0  0  0  0  0  0  0  0  0  0  0
  1  3  2  0
  1  4  1  0
  2  4  1  0
  1  5  1  0
  2  6  1  0
  5  6  1  0
  6  7  2  3
  5  8  1  0
  4 10  1  6
 10 11  2  0
 11 12  1  0
 12 13  2  0
 13 14  1  0
 10 15  1  0
 14 15  2  0
  9 16  2  0
  9 17  1  0
 14 18  1  0
 17 18  2  0
 18 19  1  0
 16 20  1  0
 19 20  2  0
  2 21  1  0
  7 22  1  0
  8 23  1  0
  8 24  1  0
  8 25  1  0
 11 26  1  0
 12 27  1  0
 13 28  1  0
 15 29  1  0
 16 30  1  0
 17 31  1  0
 19 32  1  0
 20 33  1  0
 34 35  2  3
 35 36  1  0
 36 37  1  0
 37 38  2  0
 37 39  1  0
 39 40  1  0
 40 41  2  0
 40 35  1  0
 34 42  1  0
 39 43  1  0
  4 34  1  0
M  END
>  <attachment_point>  (273) 
21

>  <score>  (273) 
<NA>

$$$$
4djw
     RDKit          3D

 47 50  0  0  0  0  0  0  0  0999 V2000
   22.4950   11.8750   22.5810 C   0  0  0  0  0  0  0  0  0  0  0  0
   22.5380    9.4930   22.4640 N   0  0  0  0  0  0  0  0  0  0  0  0
   22.3600   13.0630   22.3480 O   0  0  0  0  0  0  0  0  0  0  0  0
   22.3390   10.6680   21.5610 C   0  0  2  0  0  0  0  0  0  0  0  0
   22.7860   11.3350   23.8120 N   0  0  0  0  0  0  0  0  0  0  0  0
   22.7800    9.9140   23.7010 C   0  0  0  0  0  0  0  0  0  0  0  0
   22.9970    9.1110   24.7490 N   0  0  0  0  0  0  0  0  0  0  0  0
   23.0220   12.1410   25.0180 C   0  0  0  0  0  0  0  0  0  0  0  0
   29.1260    9.8230   21.7090 N   0  0  0  0  0  0  0  0  0  0  0  0
   23.4880   10.6920   20.5300 C   0  0  0  0  0  0  0  0  0  0  0  0
   23.2110   10.7890   19.1730 C   0  0  0  0  0  0  0  0  0  0  0  0
   24.2350   10.8650   18.2430 C   0  0  0  0  0  0  0  0  0  0  0  0
   25.5500   10.8410   18.6560 C   0  0  0  0  0  0  0  0  0  0  0  0
   25.8710   10.7460   20.0070 C   0  0  0  0  0  0  0  0  0  0  0  0
   24.8260   10.6610   20.9430 C   0  0  0  0  0  0  0  0  0  0  0  0
   29.8540   10.9130   21.4510 C   0  0  0  0  0  0  0  0  0  0  0  0
   27.8830    9.7800   21.2080 C   0  0  0  0  0  0  0  0  0  0  0  0
   27.3000   10.8010   20.4650 C   0  0  0  0  0  0  0  0  0  0  0  0
   28.0930   11.9190   20.2200 C   0  0  0  0  0  0  0  0  0  0  0  0
   29.3850   11.9780   20.7130 C   0  0  0  0  0  0  0  0  0  0  0  0
    0.0000    0.0000    0.0000 H   0  0  0  0  0  0  0  0  0  0  0  0
    0.0000    0.0000    0.0000 H   0  0  0  0  0  0  0  0  0  0  0  0
    0.0000    0.0000    0.0000 H   0  0  0  0  0  0  0  0  0  0  0  0
    0.0000    0.0000    0.0000 H   0  0  0  0  0  0  0  0  0  0  0  0
    0.0000    0.0000    0.0000 H   0  0  0  0  0  0  0  0  0  0  0  0
    0.0000    0.0000    0.0000 H   0  0  0  0  0  0  0  0  0  0  0  0
    0.0000    0.0000    0.0000 H   0  0  0  0  0  0  0  0  0  0  0  0
    0.0000    0.0000    0.0000 H   0  0  0  0  0  0  0  0  0  0  0  0
    0.0000    0.0000    0.0000 H   0  0  0  0  0  0  0  0  0  0  0  0
    0.0000    0.0000    0.0000 H   0  0  0  0  0  0  0  0  0  0  0  0
    0.0000    0.0000    0.0000 H   0  0  0  0  0  0  0  0  0  0  0  0
    0.0000    0.0000    0.0000 H   0  0  0  0  0  0  0  0  0  0  0  0
    0.0000    0.0000    0.0000 H   0  0  0  0  0  0  0  0  0  0  0  0
   10.8809    5.1962   10.5019 C   0  0  0  0  0  0  0  0  0  0  0  0
    9.5747    5.0811   10.9440 C   0  0  0  0  0  0  0  0  0  0  0  0
    8.6676    4.6435   10.0536 N   0  0  0  0  0  0  0  0  0  0  0  0
    8.9623    4.3195    8.7827 C   0  0  0  0  0  0  0  0  0  0  0  0
   10.2646    4.4332    8.3388 C   0  0  0  0  0  0  0  0  0  0  0  0
   10.5785    4.1027    7.0340 O   0  0  0  0  0  0  0  0  0  0  0  0
    9.5412    3.6543    6.1902 C   0  0  0  0  0  0  0  0  0  0  0  0
   11.2319    4.8769    9.2116 C   0  0  0  0  0  0  0  0  0  0  0  0
    9.3450    5.3397   11.9550 H   0  0  0  0  0  0  0  0  0  0  0  0
    8.1809    3.9724    8.1163 H   0  0  0  0  0  0  0  0  0  0  0  0
    8.6746    4.3438    6.1720 H   0  0  0  0  0  0  0  0  0  0  0  0
    9.2172    2.6629    6.5709 H   0  0  0  0  0  0  0  0  0  0  0  0
    9.9964    3.5698    5.1603 H   0  0  0  0  0  0  0  0  0  0  0  0
   12.2612    4.9854    8.9226 H   0  0  0  0  0  0  0  0  0  0  0  0
  1  3  2  0
  1  4  1  0
  2  4  1  0
  1  5  1  0
  2  6  1  0
  5  6  1  0
  6  7  2  3
  5  8  1  0
  4 10  1  6
 10 11  2  0
 11 12  1  0
 12 13  2  0
 13 14  1  0
 10 15  1  0
 14 15  2  0
  9 16  2  0
  9 17  1  0
 14 18  1  0
 17 18  2  0
 18 19  1  0
 16 20  1  0
 19 20  2  0
  2 21  1  0
  7 22  1  0
  8 23  1  0
  8 24  1  0
  8 25  1  0
 11 26  1  0
 12 27  1  0
 13 28  1  0
 15 29  1  0
 16 30  1  0
 17 31  1  0
 19 32  1  0
 20 33  1  0
 34 35  2  0
 35 36  1  0
 36 37  2  0
 37 38  1  0
 38 39  1  0
 39 40  1  0
 38 41  2  0
 41 34  1  0
 35 42  1  0
 37 43  1  0
 40 44  1  0
 40 45  1  0
 40 46  1  0
 41 47  1  0
  4 34  1  0
M  END
>  <attachment_point>  (274) 
21

>  <score>  (274) 
<NA>

$$$$
4djw
     RDKit          3D

 46 49  0  0  0  0  0  0  0  0999 V2000
   22.4950   11.8750   22.5810 C   0  0  0  0  0  0  0  0  0  0  0  0
   22.5380    9.4930   22.4640 N   0  0  0  0  0  0  0  0  0  0  0  0
   22.3600   13.0630   22.3480 O   0  0  0  0  0  0  0  0  0  0  0  0
   22.3390   10.6680   21.5610 C   0  0  2  0  0  0  0  0  0  0  0  0
   22.7860   11.3350   23.8120 N   0  0  0  0  0  0  0  0  0  0  0  0
   22.7800    9.9140   23.7010 C   0  0  0  0  0  0  0  0  0  0  0  0
   22.9970    9.1110   24.7490 N   0  0  0  0  0  0  0  0  0  0  0  0
   23.0220   12.1410   25.0180 C   0  0  0  0  0  0  0  0  0  0  0  0
   29.1260    9.8230   21.7090 N   0  0  0  0  0  0  0  0  0  0  0  0
   23.4880   10.6920   20.5300 C   0  0  0  0  0  0  0  0  0  0  0  0
   23.2110   10.7890   19.1730 C   0  0  0  0  0  0  0  0  0  0  0  0
   24.2350   10.8650   18.2430 C   0  0  0  0  0  0  0  0  0  0  0  0
   25.5500   10.8410   18.6560 C   0  0  0  0  0  0  0  0  0  0  0  0
   25.8710   10.7460   20.0070 C   0  0  0  0  0  0  0  0  0  0  0  0
   24.8260   10.6610   20.9430 C   0  0  0  0  0  0  0  0  0  0  0  0
   29.8540   10.9130   21.4510 C   0  0  0  0  0  0  0  0  0  0  0  0
   27.8830    9.7800   21.2080 C   0  0  0  0  0  0  0  0  0  0  0  0
   27.3000   10.8010   20.4650 C   0  0  0  0  0  0  0  0  0  0  0  0
   28.0930   11.9190   20.2200 C   0  0  0  0  0  0  0  0  0  0  0  0
   29.3850   11.9780   20.7130 C   0  0  0  0  0  0  0  0  0  0  0  0
    0.0000    0.0000    0.0000 H   0  0  0  0  0  0  0  0  0  0  0  0
    0.0000    0.0000    0.0000 H   0  0  0  0  0  0  0  0  0  0  0  0
    0.0000    0.0000    0.0000 H   0  0  0  0  0  0  0  0  0  0  0  0
    0.0000    0.0000    0.0000 H   0  0  0  0  0  0  0  0  0  0  0  0
    0.0000    0.0000    0.0000 H   0  0  0  0  0  0  0  0  0  0  0  0
    0.0000    0.0000    0.0000 H   0  0  0  0  0  0  0  0  0  0  0  0
    0.0000    0.0000    0.0000 H   0  0  0  0  0  0  0  0  0  0  0  0
    0.0000    0.0000    0.0000 H   0  0  0  0  0  0  0  0  0  0  0  0
    0.0000    0.0000    0.0000 H   0  0  0  0  0  0  0  0  0  0  0  0
    0.0000    0.0000    0.0000 H   0  0  0  0  0  0  0  0  0  0  0  0
    0.0000    0.0000    0.0000 H   0  0  0  0  0  0  0  0  0  0  0  0
    0.0000    0.0000    0.0000 H   0  0  0  0  0  0  0  0  0  0  0  0
    0.0000    0.0000    0.0000 H   0  0  0  0  0  0  0  0  0  0  0  0
   10.8548    5.1837   10.4767 C   0  0  0  0  0  0  0  0  0  0  0  0
    9.5545    5.3406   10.7764 N   0  0  0  0  0  0  0  0  0  0  0  0
    8.5668    4.9366    9.9584 C   0  0  0  0  0  0  0  0  0  0  0  0
    8.9554    4.3400    8.7702 C   0  0  0  0  0  0  0  0  0  0  0  0
   10.2869    4.1674    8.4394 C   0  0  0  0  0  0  0  0  0  0  0  0
   11.2743    4.5969    9.3084 C   0  0  0  0  0  0  0  0  0  0  0  0
   12.7205    4.4386    9.0075 C   0  0  0  0  0  0  0  0  0  0  0  0
   12.8240    3.8209    7.7739 F   0  0  0  0  0  0  0  0  0  0  0  0
   13.3985    5.6432    9.0478 F   0  0  0  0  0  0  0  0  0  0  0  0
   13.2884    3.6339    9.9921 F   0  0  0  0  0  0  0  0  0  0  0  0
    7.5195    5.0628   10.1993 H   0  0  0  0  0  0  0  0  0  0  0  0
    8.1661    4.0043    8.0906 H   0  0  0  0  0  0  0  0  0  0  0  0
   10.5737    3.6968    7.5020 H   0  0  0  0  0  0  0  0  0  0  0  0
  1  3  2  0
  1  4  1  0
  2  4  1  0
  1  5  1  0
  2  6  1  0
  5  6  1  0
  6  7  2  3
  5  8  1  0
  4 10  1  6
 10 11  2  0
 11 12  1  0
 12 13  2  0
 13 14  1  0
 10 15  1  0
 14 15  2  0
  9 16  2  0
  9 17  1  0
 14 18  1  0
 17 18  2  0
 18 19  1  0
 16 20  1  0
 19 20  2  0
  2 21  1  0
  7 22  1  0
  8 23  1  0
  8 24  1  0
  8 25  1  0
 11 26  1  0
 12 27  1  0
 13 28  1  0
 15 29  1  0
 16 30  1  0
 17 31  1  0
 19 32  1  0
 20 33  1  0
 34 35  2  0
 35 36  1  0
 36 37  2  0
 37 38  1  0
 38 39  2  0
 39 40  1  0
 40 41  1  0
 40 42  1  0
 40 43  1  0
 39 34  1  0
 36 44  1  0
 37 45  1  0
 38 46  1  0
  4 34  1  0
M  END
>  <attachment_point>  (275) 
21

>  <score>  (275) 
<NA>

$$$$
4djw
     RDKit          3D

 52 55  0  0  0  0  0  0  0  0999 V2000
   22.4950   11.8750   22.5810 C   0  0  0  0  0  0  0  0  0  0  0  0
   22.5380    9.4930   22.4640 N   0  0  0  0  0  0  0  0  0  0  0  0
   22.3600   13.0630   22.3480 O   0  0  0  0  0  0  0  0  0  0  0  0
   22.3390   10.6680   21.5610 C   0  0  2  0  0  0  0  0  0  0  0  0
   22.7860   11.3350   23.8120 N   0  0  0  0  0  0  0  0  0  0  0  0
   22.7800    9.9140   23.7010 C   0  0  0  0  0  0  0  0  0  0  0  0
   22.9970    9.1110   24.7490 N   0  0  0  0  0  0  0  0  0  0  0  0
   23.0220   12.1410   25.0180 C   0  0  0  0  0  0  0  0  0  0  0  0
   29.1260    9.8230   21.7090 N   0  0  0  0  0  0  0  0  0  0  0  0
   23.4880   10.6920   20.5300 C   0  0  0  0  0  0  0  0  0  0  0  0
   23.2110   10.7890   19.1730 C   0  0  0  0  0  0  0  0  0  0  0  0
   24.2350   10.8650   18.2430 C   0  0  0  0  0  0  0  0  0  0  0  0
   25.5500   10.8410   18.6560 C   0  0  0  0  0  0  0  0  0  0  0  0
   25.8710   10.7460   20.0070 C   0  0  0  0  0  0  0  0  0  0  0  0
   24.8260   10.6610   20.9430 C   0  0  0  0  0  0  0  0  0  0  0  0
   29.8540   10.9130   21.4510 C   0  0  0  0  0  0  0  0  0  0  0  0
   27.8830    9.7800   21.2080 C   0  0  0  0  0  0  0  0  0  0  0  0
   27.3000   10.8010   20.4650 C   0  0  0  0  0  0  0  0  0  0  0  0
   28.0930   11.9190   20.2200 C   0  0  0  0  0  0  0  0  0  0  0  0
   29.3850   11.9780   20.7130 C   0  0  0  0  0  0  0  0  0  0  0  0
    0.0000    0.0000    0.0000 H   0  0  0  0  0  0  0  0  0  0  0  0
    0.0000    0.0000    0.0000 H   0  0  0  0  0  0  0  0  0  0  0  0
    0.0000    0.0000    0.0000 H   0  0  0  0  0  0  0  0  0  0  0  0
    0.0000    0.0000    0.0000 H   0  0  0  0  0  0  0  0  0  0  0  0
    0.0000    0.0000    0.0000 H   0  0  0  0  0  0  0  0  0  0  0  0
    0.0000    0.0000    0.0000 H   0  0  0  0  0  0  0  0  0  0  0  0
    0.0000    0.0000    0.0000 H   0  0  0  0  0  0  0  0  0  0  0  0
    0.0000    0.0000    0.0000 H   0  0  0  0  0  0  0  0  0  0  0  0
    0.0000    0.0000    0.0000 H   0  0  0  0  0  0  0  0  0  0  0  0
    0.0000    0.0000    0.0000 H   0  0  0  0  0  0  0  0  0  0  0  0
    0.0000    0.0000    0.0000 H   0  0  0  0  0  0  0  0  0  0  0  0
    0.0000    0.0000    0.0000 H   0  0  0  0  0  0  0  0  0  0  0  0
    0.0000    0.0000    0.0000 H   0  0  0  0  0  0  0  0  0  0  0  0
   10.8364    5.1749   10.4590 N   0  0  0  0  0  0  0  0  0  0  0  0
    9.5491    6.2102   11.0029 S   0  0  0  0  0  6  0  0  0  0  0  0
    8.3793    5.9543   10.1170 O   0  0  0  0  0  0  0  0  0  0  0  0
   10.0366    7.6382   10.8897 O   0  0  0  0  0  0  0  0  0  0  0  0
    9.2237    5.7932   12.6717 C   0  0  0  0  0  0  0  0  0  0  0  0
    8.3021    4.8263   13.0215 C   0  0  0  0  0  0  0  0  0  0  0  0
    8.0525    4.5046   14.3399 C   0  0  0  0  0  0  0  0  0  0  0  0
    8.7107    5.1322   15.3771 C   0  0  0  0  0  0  0  0  0  0  0  0
    8.4395    4.7826   16.8068 C   0  0  0  0  0  0  0  0  0  0  0  0
    9.6323    6.0987   15.0347 C   0  0  0  0  0  0  0  0  0  0  0  0
    9.8790    6.4173   13.7153 C   0  0  0  0  0  0  0  0  0  0  0  0
   11.3077    5.6415    9.6382 H   0  0  0  0  0  0  0  0  0  0  0  0
    7.7747    4.3228   12.2025 H   0  0  0  0  0  0  0  0  0  0  0  0
    7.3162    3.7335   14.5892 H   0  0  0  0  0  0  0  0  0  0  0  0
    7.7498    5.5219   17.2806 H   0  0  0  0  0  0  0  0  0  0  0  0
    9.3711    4.7492   17.4037 H   0  0  0  0  0  0  0  0  0  0  0  0
    8.0188    3.7654   16.8170 H   0  0  0  0  0  0  0  0  0  0  0  0
   10.1543    6.5971   15.8452 H   0  0  0  0  0  0  0  0  0  0  0  0
   10.6086    7.1829   13.4381 H   0  0  0  0  0  0  0  0  0  0  0  0
  1  3  2  0
  1  4  1  0
  2  4  1  0
  1  5  1  0
  2  6  1  0
  5  6  1  0
  6  7  2  3
  5  8  1  0
  4 10  1  0
 10 11  2  0
 11 12  1  0
 12 13  2  0
 13 14  1  0
 10 15  1  0
 14 15  2  0
  9 16  2  0
  9 17  1  0
 14 18  1  0
 17 18  2  0
 18 19  1  0
 16 20  1  0
 19 20  2  0
  2 21  1  0
  7 22  1  0
  8 23  1  0
  8 24  1  0
  8 25  1  0
 11 26  1  0
 12 27  1  0
 13 28  1  0
 15 29  1  0
 16 30  1  0
 17 31  1  0
 19 32  1  0
 20 33  1  0
 34 35  1  0
 35 36  2  0
 35 37  2  0
 35 38  1  0
 38 39  2  0
 39 40  1  0
 40 41  2  0
 41 42  1  0
 41 43  1  0
 43 44  2  0
 44 38  1  0
 34 45  1  0
 39 46  1  0
 40 47  1  0
 42 48  1  0
 42 49  1  0
 42 50  1  0
 43 51  1  0
 44 52  1  0
  4 34  1  6
M  END
>  <attachment_point>  (276) 
21

>  <score>  (276) 
<NA>

$$$$
4djw
     RDKit          3D

 51 54  0  0  0  0  0  0  0  0999 V2000
   22.4950   11.8750   22.5810 C   0  0  0  0  0  0  0  0  0  0  0  0
   22.5380    9.4930   22.4640 N   0  0  0  0  0  0  0  0  0  0  0  0
   22.3600   13.0630   22.3480 O   0  0  0  0  0  0  0  0  0  0  0  0
   22.3390   10.6680   21.5610 C   0  0  2  0  0  0  0  0  0  0  0  0
   22.7860   11.3350   23.8120 N   0  0  0  0  0  0  0  0  0  0  0  0
   22.7800    9.9140   23.7010 C   0  0  0  0  0  0  0  0  0  0  0  0
   22.9970    9.1110   24.7490 N   0  0  0  0  0  0  0  0  0  0  0  0
   23.0220   12.1410   25.0180 C   0  0  0  0  0  0  0  0  0  0  0  0
   29.1260    9.8230   21.7090 N   0  0  0  0  0  0  0  0  0  0  0  0
   23.4880   10.6920   20.5300 C   0  0  0  0  0  0  0  0  0  0  0  0
   23.2110   10.7890   19.1730 C   0  0  0  0  0  0  0  0  0  0  0  0
   24.2350   10.8650   18.2430 C   0  0  0  0  0  0  0  0  0  0  0  0
   25.5500   10.8410   18.6560 C   0  0  0  0  0  0  0  0  0  0  0  0
   25.8710   10.7460   20.0070 C   0  0  0  0  0  0  0  0  0  0  0  0
   24.8260   10.6610   20.9430 C   0  0  0  0  0  0  0  0  0  0  0  0
   29.8540   10.9130   21.4510 C   0  0  0  0  0  0  0  0  0  0  0  0
   27.8830    9.7800   21.2080 C   0  0  0  0  0  0  0  0  0  0  0  0
   27.3000   10.8010   20.4650 C   0  0  0  0  0  0  0  0  0  0  0  0
   28.0930   11.9190   20.2200 C   0  0  0  0  0  0  0  0  0  0  0  0
   29.3850   11.9780   20.7130 C   0  0  0  0  0  0  0  0  0  0  0  0
    0.0000    0.0000    0.0000 H   0  0  0  0  0  0  0  0  0  0  0  0
    0.0000    0.0000    0.0000 H   0  0  0  0  0  0  0  0  0  0  0  0
    0.0000    0.0000    0.0000 H   0  0  0  0  0  0  0  0  0  0  0  0
    0.0000    0.0000    0.0000 H   0  0  0  0  0  0  0  0  0  0  0  0
    0.0000    0.0000    0.0000 H   0  0  0  0  0  0  0  0  0  0  0  0
    0.0000    0.0000    0.0000 H   0  0  0  0  0  0  0  0  0  0  0  0
    0.0000    0.0000    0.0000 H   0  0  0  0  0  0  0  0  0  0  0  0
    0.0000    0.0000    0.0000 H   0  0  0  0  0  0  0  0  0  0  0  0
    0.0000    0.0000    0.0000 H   0  0  0  0  0  0  0  0  0  0  0  0
    0.0000    0.0000    0.0000 H   0  0  0  0  0  0  0  0  0  0  0  0
    0.0000    0.0000    0.0000 H   0  0  0  0  0  0  0  0  0  0  0  0
    0.0000    0.0000    0.0000 H   0  0  0  0  0  0  0  0  0  0  0  0
    0.0000    0.0000    0.0000 H   0  0  0  0  0  0  0  0  0  0  0  0
   10.9654    5.2365   10.5835 O   0  0  0  0  0  0  0  0  0  0  0  0
   10.0721    4.2379   10.8917 C   0  0  0  0  0  0  0  0  0  0  0  0
    9.1425    3.9235    9.7302 C   0  0  0  0  0  0  0  0  0  0  0  0
    8.3501    5.0990    9.3323 C   0  0  0  0  0  0  0  0  0  0  0  0
    7.1281    5.3553    9.8967 C   0  0  0  0  0  0  0  0  0  0  0  0
    6.3658    6.4634    9.5312 C   0  0  0  0  0  0  0  0  0  0  0  0
    6.8572    7.3248    8.5740 C   0  0  0  0  0  0  0  0  0  0  0  0
    8.0847    7.0580    8.0141 C   0  0  0  0  0  0  0  0  0  0  0  0
    8.8435    5.9519    8.3804 C   0  0  0  0  0  0  0  0  0  0  0  0
   10.6065    3.3396   11.2432 H   0  0  0  0  0  0  0  0  0  0  0  0
    9.4100    4.6151   11.7149 H   0  0  0  0  0  0  0  0  0  0  0  0
    8.4836    3.0762    9.9896 H   0  0  0  0  0  0  0  0  0  0  0  0
    9.8026    3.5551    8.9086 H   0  0  0  0  0  0  0  0  0  0  0  0
    6.7370    4.6740   10.6552 H   0  0  0  0  0  0  0  0  0  0  0  0
    5.4038    6.6553    9.9829 H   0  0  0  0  0  0  0  0  0  0  0  0
    6.3163    8.2028    8.2451 H   0  0  0  0  0  0  0  0  0  0  0  0
    8.5183    7.7149    7.2477 H   0  0  0  0  0  0  0  0  0  0  0  0
    9.8212    5.7812    7.9028 H   0  0  0  0  0  0  0  0  0  0  0  0
  1  3  2  0
  1  4  1  0
  2  4  1  0
  1  5  1  0
  2  6  1  0
  5  6  1  0
  6  7  2  3
  5  8  1  0
  4 10  1  0
 10 11  2  0
 11 12  1  0
 12 13  2  0
 13 14  1  0
 10 15  1  0
 14 15  2  0
  9 16  2  0
  9 17  1  0
 14 18  1  0
 17 18  2  0
 18 19  1  0
 16 20  1  0
 19 20  2  0
  2 21  1  0
  7 22  1  0
  8 23  1  0
  8 24  1  0
  8 25  1  0
 11 26  1  0
 12 27  1  0
 13 28  1  0
 15 29  1  0
 16 30  1  0
 17 31  1  0
 19 32  1  0
 20 33  1  0
 34 35  1  0
 35 36  1  0
 36 37  1  0
 37 38  2  0
 38 39  1  0
 39 40  2  0
 40 41  1  0
 41 42  2  0
 42 37  1  0
 35 43  1  0
 35 44  1  0
 36 45  1  0
 36 46  1  0
 38 47  1  0
 39 48  1  0
 40 49  1  0
 41 50  1  0
 42 51  1  0
  4 34  1  6
M  END
>  <attachment_point>  (277) 
21

>  <score>  (277) 
<NA>

$$$$
4djw
     RDKit          3D

 51 54  0  0  0  0  0  0  0  0999 V2000
   22.4950   11.8750   22.5810 C   0  0  0  0  0  0  0  0  0  0  0  0
   22.5380    9.4930   22.4640 N   0  0  0  0  0  0  0  0  0  0  0  0
   22.3600   13.0630   22.3480 O   0  0  0  0  0  0  0  0  0  0  0  0
   22.3390   10.6680   21.5610 C   0  0  2  0  0  0  0  0  0  0  0  0
   22.7860   11.3350   23.8120 N   0  0  0  0  0  0  0  0  0  0  0  0
   22.7800    9.9140   23.7010 C   0  0  0  0  0  0  0  0  0  0  0  0
   22.9970    9.1110   24.7490 N   0  0  0  0  0  0  0  0  0  0  0  0
   23.0220   12.1410   25.0180 C   0  0  0  0  0  0  0  0  0  0  0  0
   29.1260    9.8230   21.7090 N   0  0  0  0  0  0  0  0  0  0  0  0
   23.4880   10.6920   20.5300 C   0  0  0  0  0  0  0  0  0  0  0  0
   23.2110   10.7890   19.1730 C   0  0  0  0  0  0  0  0  0  0  0  0
   24.2350   10.8650   18.2430 C   0  0  0  0  0  0  0  0  0  0  0  0
   25.5500   10.8410   18.6560 C   0  0  0  0  0  0  0  0  0  0  0  0
   25.8710   10.7460   20.0070 C   0  0  0  0  0  0  0  0  0  0  0  0
   24.8260   10.6610   20.9430 C   0  0  0  0  0  0  0  0  0  0  0  0
   29.8540   10.9130   21.4510 C   0  0  0  0  0  0  0  0  0  0  0  0
   27.8830    9.7800   21.2080 C   0  0  0  0  0  0  0  0  0  0  0  0
   27.3000   10.8010   20.4650 C   0  0  0  0  0  0  0  0  0  0  0  0
   28.0930   11.9190   20.2200 C   0  0  0  0  0  0  0  0  0  0  0  0
   29.3850   11.9780   20.7130 C   0  0  0  0  0  0  0  0  0  0  0  0
    0.0000    0.0000    0.0000 H   0  0  0  0  0  0  0  0  0  0  0  0
    0.0000    0.0000    0.0000 H   0  0  0  0  0  0  0  0  0  0  0  0
    0.0000    0.0000    0.0000 H   0  0  0  0  0  0  0  0  0  0  0  0
    0.0000    0.0000    0.0000 H   0  0  0  0  0  0  0  0  0  0  0  0
    0.0000    0.0000    0.0000 H   0  0  0  0  0  0  0  0  0  0  0  0
    0.0000    0.0000    0.0000 H   0  0  0  0  0  0  0  0  0  0  0  0
    0.0000    0.0000    0.0000 H   0  0  0  0  0  0  0  0  0  0  0  0
    0.0000    0.0000    0.0000 H   0  0  0  0  0  0  0  0  0  0  0  0
    0.0000    0.0000    0.0000 H   0  0  0  0  0  0  0  0  0  0  0  0
    0.0000    0.0000    0.0000 H   0  0  0  0  0  0  0  0  0  0  0  0
    0.0000    0.0000    0.0000 H   0  0  0  0  0  0  0  0  0  0  0  0
    0.0000    0.0000    0.0000 H   0  0  0  0  0  0  0  0  0  0  0  0
    0.0000    0.0000    0.0000 H   0  0  0  0  0  0  0  0  0  0  0  0
   10.8701    5.1910   10.4915 C   0  0  0  0  0  0  0  0  0  0  0  0
    9.6460    5.1947   10.7870 O   0  0  0  0  0  0  0  0  0  0  0  0
   11.3352    4.7234    9.2081 N   0  0  0  0  0  0  0  0  0  0  0  0
   10.3391    4.2587    8.2745 C   0  0  0  0  0  0  0  0  0  0  0  0
   10.6496    2.9145    7.6705 C   0  0  0  0  0  0  0  0  0  0  0  0
   11.7566    3.2240    6.7115 C   0  0  0  0  0  0  0  0  0  0  0  0
   11.7728    4.7194    6.5022 C   0  0  0  0  0  0  0  0  0  0  0  0
   10.4397    5.1438    7.0541 C   0  0  0  0  0  0  0  0  0  0  0  0
   12.3593    4.7460    9.0326 H   0  0  0  0  0  0  0  0  0  0  0  0
    9.3152    4.3036    8.7015 H   0  0  0  0  0  0  0  0  0  0  0  0
    9.7255    2.5783    7.1476 H   0  0  0  0  0  0  0  0  0  0  0  0
   10.9621    2.1712    8.4480 H   0  0  0  0  0  0  0  0  0  0  0  0
   12.7480    2.8676    7.0637 H   0  0  0  0  0  0  0  0  0  0  0  0
   11.5242    2.7460    5.7216 H   0  0  0  0  0  0  0  0  0  0  0  0
   11.8687    4.9599    5.4169 H   0  0  0  0  0  0  0  0  0  0  0  0
   12.6445    5.1219    7.0780 H   0  0  0  0  0  0  0  0  0  0  0  0
    9.6743    4.8673    6.3107 H   0  0  0  0  0  0  0  0  0  0  0  0
   10.4024    6.2106    7.3369 H   0  0  0  0  0  0  0  0  0  0  0  0
  1  3  2  0
  1  4  1  0
  2  4  1  0
  1  5  1  0
  2  6  1  0
  5  6  1  0
  6  7  2  3
  5  8  1  0
  4 10  1  0
 10 11  2  0
 11 12  1  0
 12 13  2  0
 13 14  1  0
 10 15  1  0
 14 15  2  0
  9 16  2  0
  9 17  1  0
 14 18  1  0
 17 18  2  0
 18 19  1  0
 16 20  1  0
 19 20  2  0
  2 21  1  0
  7 22  1  0
  8 23  1  0
  8 24  1  0
  8 25  1  0
 11 26  1  0
 12 27  1  0
 13 28  1  0
 15 29  1  0
 16 30  1  0
 17 31  1  0
 19 32  1  0
 20 33  1  0
 34 35  2  0
 34 36  1  0
 36 37  1  0
 37 38  1  0
 38 39  1  0
 39 40  1  0
 40 41  1  0
 41 37  1  0
 36 42  1  0
 37 43  1  0
 38 44  1  0
 38 45  1  0
 39 46  1  0
 39 47  1  0
 40 48  1  0
 40 49  1  0
 41 50  1  0
 41 51  1  0
  4 34  1  6
M  END
>  <attachment_point>  (278) 
21

>  <score>  (278) 
<NA>

$$$$
4djw
     RDKit          3D

 47 51  0  0  0  0  0  0  0  0999 V2000
   22.4950   11.8750   22.5810 C   0  0  0  0  0  0  0  0  0  0  0  0
   22.5380    9.4930   22.4640 N   0  0  0  0  0  0  0  0  0  0  0  0
   22.3600   13.0630   22.3480 O   0  0  0  0  0  0  0  0  0  0  0  0
   22.3390   10.6680   21.5610 C   0  0  2  0  0  0  0  0  0  0  0  0
   22.7860   11.3350   23.8120 N   0  0  0  0  0  0  0  0  0  0  0  0
   22.7800    9.9140   23.7010 C   0  0  0  0  0  0  0  0  0  0  0  0
   22.9970    9.1110   24.7490 N   0  0  0  0  0  0  0  0  0  0  0  0
   23.0220   12.1410   25.0180 C   0  0  0  0  0  0  0  0  0  0  0  0
   29.1260    9.8230   21.7090 N   0  0  0  0  0  0  0  0  0  0  0  0
   23.4880   10.6920   20.5300 C   0  0  0  0  0  0  0  0  0  0  0  0
   23.2110   10.7890   19.1730 C   0  0  0  0  0  0  0  0  0  0  0  0
   24.2350   10.8650   18.2430 C   0  0  0  0  0  0  0  0  0  0  0  0
   25.5500   10.8410   18.6560 C   0  0  0  0  0  0  0  0  0  0  0  0
   25.8710   10.7460   20.0070 C   0  0  0  0  0  0  0  0  0  0  0  0
   24.8260   10.6610   20.9430 C   0  0  0  0  0  0  0  0  0  0  0  0
   29.8540   10.9130   21.4510 C   0  0  0  0  0  0  0  0  0  0  0  0
   27.8830    9.7800   21.2080 C   0  0  0  0  0  0  0  0  0  0  0  0
   27.3000   10.8010   20.4650 C   0  0  0  0  0  0  0  0  0  0  0  0
   28.0930   11.9190   20.2200 C   0  0  0  0  0  0  0  0  0  0  0  0
   29.3850   11.9780   20.7130 C   0  0  0  0  0  0  0  0  0  0  0  0
    0.0000    0.0000    0.0000 H   0  0  0  0  0  0  0  0  0  0  0  0
    0.0000    0.0000    0.0000 H   0  0  0  0  0  0  0  0  0  0  0  0
    0.0000    0.0000    0.0000 H   0  0  0  0  0  0  0  0  0  0  0  0
    0.0000    0.0000    0.0000 H   0  0  0  0  0  0  0  0  0  0  0  0
    0.0000    0.0000    0.0000 H   0  0  0  0  0  0  0  0  0  0  0  0
    0.0000    0.0000    0.0000 H   0  0  0  0  0  0  0  0  0  0  0  0
    0.0000    0.0000    0.0000 H   0  0  0  0  0  0  0  0  0  0  0  0
    0.0000    0.0000    0.0000 H   0  0  0  0  0  0  0  0  0  0  0  0
    0.0000    0.0000    0.0000 H   0  0  0  0  0  0  0  0  0  0  0  0
    0.0000    0.0000    0.0000 H   0  0  0  0  0  0  0  0  0  0  0  0
    0.0000    0.0000    0.0000 H   0  0  0  0  0  0  0  0  0  0  0  0
    0.0000    0.0000    0.0000 H   0  0  0  0  0  0  0  0  0  0  0  0
    0.0000    0.0000    0.0000 H   0  0  0  0  0  0  0  0  0  0  0  0
   10.8560    5.1843   10.4779 C   0  0  0  0  0  0  0  0  0  0  0  0
   10.5628    3.8562   10.5560 C   0  0  0  0  0  0  0  0  0  0  0  0
    9.6355    3.3163    9.6903 C   0  0  0  0  0  0  0  0  0  0  0  0
    9.0179    4.1359    8.7557 C   0  0  0  0  0  0  0  0  0  0  0  0
    8.0821    3.8912    7.7910 N   0  0  0  0  0  0  0  0  0  0  0  0
    7.8432    5.0451    7.1750 N   0  0  0  0  0  0  0  0  0  0  0  0
    8.6021    6.0296    7.7187 C   0  0  0  0  0  0  0  0  0  0  0  0
    9.3522    5.4707    8.7212 C   0  0  0  0  0  0  0  0  0  0  0  0
   10.2880    6.0451    9.5857 C   0  0  0  0  0  0  0  0  0  0  0  0
   11.0396    3.2236   11.2775 H   0  0  0  0  0  0  0  0  0  0  0  0
    9.3826    2.2800    9.7244 H   0  0  0  0  0  0  0  0  0  0  0  0
    7.6509    2.9540    7.5969 H   0  0  0  0  0  0  0  0  0  0  0  0
    8.6452    7.0756    7.4486 H   0  0  0  0  0  0  0  0  0  0  0  0
   10.5417    7.0983    9.5474 H   0  0  0  0  0  0  0  0  0  0  0  0
  1  3  2  0
  1  4  1  0
  2  4  1  0
  1  5  1  0
  2  6  1  0
  5  6  1  0
  6  7  2  3
  5  8  1  0
  4 10  1  6
 10 11  2  0
 11 12  1  0
 12 13  2  0
 13 14  1  0
 10 15  1  0
 14 15  2  0
  9 16  2  0
  9 17  1  0
 14 18  1  0
 17 18  2  0
 18 19  1  0
 16 20  1  0
 19 20  2  0
  2 21  1  0
  7 22  1  0
  8 23  1  0
  8 24  1  0
  8 25  1  0
 11 26  1  0
 12 27  1  0
 13 28  1  0
 15 29  1  0
 16 30  1  0
 17 31  1  0
 19 32  1  0
 20 33  1  0
 34 35  2  0
 35 36  1  0
 36 37  2  0
 37 38  1  0
 38 39  1  0
 39 40  2  0
 40 41  1  0
 41 42  2  0
 42 34  1  0
 41 37  1  0
 35 43  1  0
 36 44  1  0
 38 45  1  0
 40 46  1  0
 42 47  1  0
  4 34  1  0
M  END
>  <attachment_point>  (279) 
21

>  <score>  (279) 
<NA>

$$$$
4djw
     RDKit          3D

 48 51  0  0  0  0  0  0  0  0999 V2000
   22.4950   11.8750   22.5810 C   0  0  0  0  0  0  0  0  0  0  0  0
   22.5380    9.4930   22.4640 N   0  0  0  0  0  0  0  0  0  0  0  0
   22.3600   13.0630   22.3480 O   0  0  0  0  0  0  0  0  0  0  0  0
   22.3390   10.6680   21.5610 C   0  0  2  0  0  0  0  0  0  0  0  0
   22.7860   11.3350   23.8120 N   0  0  0  0  0  0  0  0  0  0  0  0
   22.7800    9.9140   23.7010 C   0  0  0  0  0  0  0  0  0  0  0  0
   22.9970    9.1110   24.7490 N   0  0  0  0  0  0  0  0  0  0  0  0
   23.0220   12.1410   25.0180 C   0  0  0  0  0  0  0  0  0  0  0  0
   29.1260    9.8230   21.7090 N   0  0  0  0  0  0  0  0  0  0  0  0
   23.4880   10.6920   20.5300 C   0  0  0  0  0  0  0  0  0  0  0  0
   23.2110   10.7890   19.1730 C   0  0  0  0  0  0  0  0  0  0  0  0
   24.2350   10.8650   18.2430 C   0  0  0  0  0  0  0  0  0  0  0  0
   25.5500   10.8410   18.6560 C   0  0  0  0  0  0  0  0  0  0  0  0
   25.8710   10.7460   20.0070 C   0  0  0  0  0  0  0  0  0  0  0  0
   24.8260   10.6610   20.9430 C   0  0  0  0  0  0  0  0  0  0  0  0
   29.8540   10.9130   21.4510 C   0  0  0  0  0  0  0  0  0  0  0  0
   27.8830    9.7800   21.2080 C   0  0  0  0  0  0  0  0  0  0  0  0
   27.3000   10.8010   20.4650 C   0  0  0  0  0  0  0  0  0  0  0  0
   28.0930   11.9190   20.2200 C   0  0  0  0  0  0  0  0  0  0  0  0
   29.3850   11.9780   20.7130 C   0  0  0  0  0  0  0  0  0  0  0  0
    0.0000    0.0000    0.0000 H   0  0  0  0  0  0  0  0  0  0  0  0
    0.0000    0.0000    0.0000 H   0  0  0  0  0  0  0  0  0  0  0  0
    0.0000    0.0000    0.0000 H   0  0  0  0  0  0  0  0  0  0  0  0
    0.0000    0.0000    0.0000 H   0  0  0  0  0  0  0  0  0  0  0  0
    0.0000    0.0000    0.0000 H   0  0  0  0  0  0  0  0  0  0  0  0
    0.0000    0.0000    0.0000 H   0  0  0  0  0  0  0  0  0  0  0  0
    0.0000    0.0000    0.0000 H   0  0  0  0  0  0  0  0  0  0  0  0
    0.0000    0.0000    0.0000 H   0  0  0  0  0  0  0  0  0  0  0  0
    0.0000    0.0000    0.0000 H   0  0  0  0  0  0  0  0  0  0  0  0
    0.0000    0.0000    0.0000 H   0  0  0  0  0  0  0  0  0  0  0  0
    0.0000    0.0000    0.0000 H   0  0  0  0  0  0  0  0  0  0  0  0
    0.0000    0.0000    0.0000 H   0  0  0  0  0  0  0  0  0  0  0  0
    0.0000    0.0000    0.0000 H   0  0  0  0  0  0  0  0  0  0  0  0
   10.9058    5.2081   10.5260 O   0  0  0  0  0  0  0  0  0  0  0  0
    9.6534    5.4001   11.0457 C   0  0  0  0  0  0  0  0  0  0  0  0
    8.8305    6.2771   10.1075 C   0  0  0  0  0  0  0  0  0  0  0  0
    7.5252    5.5598    9.8714 C   0  0  0  0  0  0  0  0  0  0  0  0
    7.4299    4.6617   11.0934 C   0  0  0  0  0  0  0  0  0  0  0  0
    8.8592    4.0972   11.0939 C   0  0  0  0  0  0  0  0  0  0  0  0
    9.7399    5.8573   12.0395 H   0  0  0  0  0  0  0  0  0  0  0  0
    8.6214    7.2447   10.6450 H   0  0  0  0  0  0  0  0  0  0  0  0
    9.3707    6.5174    9.1839 H   0  0  0  0  0  0  0  0  0  0  0  0
    7.6067    4.8641    8.9954 H   0  0  0  0  0  0  0  0  0  0  0  0
    6.6617    6.2337    9.7916 H   0  0  0  0  0  0  0  0  0  0  0  0
    7.3002    5.2541   12.0295 H   0  0  0  0  0  0  0  0  0  0  0  0
    6.6920    3.8622   10.9747 H   0  0  0  0  0  0  0  0  0  0  0  0
    9.0637    3.5136   11.9976 H   0  0  0  0  0  0  0  0  0  0  0  0
    8.9772    3.5650   10.1505 H   0  0  0  0  0  0  0  0  0  0  0  0
  1  3  2  0
  1  4  1  0
  2  4  1  0
  1  5  1  0
  2  6  1  0
  5  6  1  0
  6  7  2  3
  5  8  1  0
  4 10  1  0
 10 11  2  0
 11 12  1  0
 12 13  2  0
 13 14  1  0
 10 15  1  0
 14 15  2  0
  9 16  2  0
  9 17  1  0
 14 18  1  0
 17 18  2  0
 18 19  1  0
 16 20  1  0
 19 20  2  0
  2 21  1  0
  7 22  1  0
  8 23  1  0
  8 24  1  0
  8 25  1  0
 11 26  1  0
 12 27  1  0
 13 28  1  0
 15 29  1  0
 16 30  1  0
 17 31  1  0
 19 32  1  0
 20 33  1  0
 34 35  1  0
 35 36  1  0
 36 37  1  0
 37 38  1  0
 38 39  1  0
 39 35  1  0
 35 40  1  0
 36 41  1  0
 36 42  1  0
 37 43  1  0
 37 44  1  0
 38 45  1  0
 38 46  1  0
 39 47  1  0
 39 48  1  0
  4 34  1  6
M  END
>  <attachment_point>  (280) 
21

>  <score>  (280) 
<NA>

$$$$
4djw
     RDKit          3D

 48 51  0  0  0  0  0  0  0  0999 V2000
   22.4950   11.8750   22.5810 C   0  0  0  0  0  0  0  0  0  0  0  0
   22.5380    9.4930   22.4640 N   0  0  0  0  0  0  0  0  0  0  0  0
   22.3600   13.0630   22.3480 O   0  0  0  0  0  0  0  0  0  0  0  0
   22.3390   10.6680   21.5610 C   0  0  2  0  0  0  0  0  0  0  0  0
   22.7860   11.3350   23.8120 N   0  0  0  0  0  0  0  0  0  0  0  0
   22.7800    9.9140   23.7010 C   0  0  0  0  0  0  0  0  0  0  0  0
   22.9970    9.1110   24.7490 N   0  0  0  0  0  0  0  0  0  0  0  0
   23.0220   12.1410   25.0180 C   0  0  0  0  0  0  0  0  0  0  0  0
   29.1260    9.8230   21.7090 N   0  0  0  0  0  0  0  0  0  0  0  0
   23.4880   10.6920   20.5300 C   0  0  0  0  0  0  0  0  0  0  0  0
   23.2110   10.7890   19.1730 C   0  0  0  0  0  0  0  0  0  0  0  0
   24.2350   10.8650   18.2430 C   0  0  0  0  0  0  0  0  0  0  0  0
   25.5500   10.8410   18.6560 C   0  0  0  0  0  0  0  0  0  0  0  0
   25.8710   10.7460   20.0070 C   0  0  0  0  0  0  0  0  0  0  0  0
   24.8260   10.6610   20.9430 C   0  0  0  0  0  0  0  0  0  0  0  0
   29.8540   10.9130   21.4510 C   0  0  0  0  0  0  0  0  0  0  0  0
   27.8830    9.7800   21.2080 C   0  0  0  0  0  0  0  0  0  0  0  0
   27.3000   10.8010   20.4650 C   0  0  0  0  0  0  0  0  0  0  0  0
   28.0930   11.9190   20.2200 C   0  0  0  0  0  0  0  0  0  0  0  0
   29.3850   11.9780   20.7130 C   0  0  0  0  0  0  0  0  0  0  0  0
    0.0000    0.0000    0.0000 H   0  0  0  0  0  0  0  0  0  0  0  0
    0.0000    0.0000    0.0000 H   0  0  0  0  0  0  0  0  0  0  0  0
    0.0000    0.0000    0.0000 H   0  0  0  0  0  0  0  0  0  0  0  0
    0.0000    0.0000    0.0000 H   0  0  0  0  0  0  0  0  0  0  0  0
    0.0000    0.0000    0.0000 H   0  0  0  0  0  0  0  0  0  0  0  0
    0.0000    0.0000    0.0000 H   0  0  0  0  0  0  0  0  0  0  0  0
    0.0000    0.0000    0.0000 H   0  0  0  0  0  0  0  0  0  0  0  0
    0.0000    0.0000    0.0000 H   0  0  0  0  0  0  0  0  0  0  0  0
    0.0000    0.0000    0.0000 H   0  0  0  0  0  0  0  0  0  0  0  0
    0.0000    0.0000    0.0000 H   0  0  0  0  0  0  0  0  0  0  0  0
    0.0000    0.0000    0.0000 H   0  0  0  0  0  0  0  0  0  0  0  0
    0.0000    0.0000    0.0000 H   0  0  0  0  0  0  0  0  0  0  0  0
    0.0000    0.0000    0.0000 H   0  0  0  0  0  0  0  0  0  0  0  0
   10.8904    5.2007   10.5112 C   0  0  0  0  0  0  0  0  0  0  0  0
    9.6522    5.8070   10.4417 C   0  0  0  0  0  0  0  0  0  0  0  0
    8.6972    5.3732    9.5410 C   0  0  0  0  0  0  0  0  0  0  0  0
    9.0320    4.3179    8.7222 C   0  0  0  0  0  0  0  0  0  0  0  0
   10.2622    3.7056    8.7819 C   0  0  0  0  0  0  0  0  0  0  0  0
   10.5284    2.5783    7.8598 C   0  0  0  0  0  0  0  0  0  0  0  0
   10.1230    1.4086    8.5214 O   0  0  0  0  0  0  0  0  0  0  0  0
   11.2079    4.1430    9.6811 C   0  0  0  0  0  0  0  0  0  0  0  0
    9.3760    6.6354   11.0777 H   0  0  0  0  0  0  0  0  0  0  0  0
    7.7248    5.8256    9.4642 H   0  0  0  0  0  0  0  0  0  0  0  0
    8.2979    3.9569    8.0038 H   0  0  0  0  0  0  0  0  0  0  0  0
    9.8668    2.6892    6.9803 H   0  0  0  0  0  0  0  0  0  0  0  0
   11.6032    2.5196    7.5683 H   0  0  0  0  0  0  0  0  0  0  0  0
    9.6229    0.8104    7.8908 H   0  0  0  0  0  0  0  0  0  0  0  0
   12.1997    3.6693    9.7478 H   0  0  0  0  0  0  0  0  0  0  0  0
  1  3  2  0
  1  4  1  0
  2  4  1  0
  1  5  1  0
  2  6  1  0
  5  6  1  0
  6  7  2  3
  5  8  1  0
  4 10  1  6
 10 11  2  0
 11 12  1  0
 12 13  2  0
 13 14  1  0
 10 15  1  0
 14 15  2  0
  9 16  2  0
  9 17  1  0
 14 18  1  0
 17 18  2  0
 18 19  1  0
 16 20  1  0
 19 20  2  0
  2 21  1  0
  7 22  1  0
  8 23  1  0
  8 24  1  0
  8 25  1  0
 11 26  1  0
 12 27  1  0
 13 28  1  0
 15 29  1  0
 16 30  1  0
 17 31  1  0
 19 32  1  0
 20 33  1  0
 34 35  2  0
 35 36  1  0
 36 37  2  0
 37 38  1  0
 38 39  1  0
 39 40  1  0
 38 41  2  0
 41 34  1  0
 35 42  1  0
 36 43  1  0
 37 44  1  0
 39 45  1  0
 39 46  1  0
 40 47  1  0
 41 48  1  0
  4 34  1  0
M  END
>  <attachment_point>  (281) 
21

>  <score>  (281) 
<NA>

$$$$
4djw
     RDKit          3D

 48 51  0  0  0  0  0  0  0  0999 V2000
   22.4950   11.8750   22.5810 C   0  0  0  0  0  0  0  0  0  0  0  0
   22.5380    9.4930   22.4640 N   0  0  0  0  0  0  0  0  0  0  0  0
   22.3600   13.0630   22.3480 O   0  0  0  0  0  0  0  0  0  0  0  0
   22.3390   10.6680   21.5610 C   0  0  2  0  0  0  0  0  0  0  0  0
   22.7860   11.3350   23.8120 N   0  0  0  0  0  0  0  0  0  0  0  0
   22.7800    9.9140   23.7010 C   0  0  0  0  0  0  0  0  0  0  0  0
   22.9970    9.1110   24.7490 N   0  0  0  0  0  0  0  0  0  0  0  0
   23.0220   12.1410   25.0180 C   0  0  0  0  0  0  0  0  0  0  0  0
   29.1260    9.8230   21.7090 N   0  0  0  0  0  0  0  0  0  0  0  0
   23.4880   10.6920   20.5300 C   0  0  0  0  0  0  0  0  0  0  0  0
   23.2110   10.7890   19.1730 C   0  0  0  0  0  0  0  0  0  0  0  0
   24.2350   10.8650   18.2430 C   0  0  0  0  0  0  0  0  0  0  0  0
   25.5500   10.8410   18.6560 C   0  0  0  0  0  0  0  0  0  0  0  0
   25.8710   10.7460   20.0070 C   0  0  0  0  0  0  0  0  0  0  0  0
   24.8260   10.6610   20.9430 C   0  0  0  0  0  0  0  0  0  0  0  0
   29.8540   10.9130   21.4510 C   0  0  0  0  0  0  0  0  0  0  0  0
   27.8830    9.7800   21.2080 C   0  0  0  0  0  0  0  0  0  0  0  0
   27.3000   10.8010   20.4650 C   0  0  0  0  0  0  0  0  0  0  0  0
   28.0930   11.9190   20.2200 C   0  0  0  0  0  0  0  0  0  0  0  0
   29.3850   11.9780   20.7130 C   0  0  0  0  0  0  0  0  0  0  0  0
    0.0000    0.0000    0.0000 H   0  0  0  0  0  0  0  0  0  0  0  0
    0.0000    0.0000    0.0000 H   0  0  0  0  0  0  0  0  0  0  0  0
    0.0000    0.0000    0.0000 H   0  0  0  0  0  0  0  0  0  0  0  0
    0.0000    0.0000    0.0000 H   0  0  0  0  0  0  0  0  0  0  0  0
    0.0000    0.0000    0.0000 H   0  0  0  0  0  0  0  0  0  0  0  0
    0.0000    0.0000    0.0000 H   0  0  0  0  0  0  0  0  0  0  0  0
    0.0000    0.0000    0.0000 H   0  0  0  0  0  0  0  0  0  0  0  0
    0.0000    0.0000    0.0000 H   0  0  0  0  0  0  0  0  0  0  0  0
    0.0000    0.0000    0.0000 H   0  0  0  0  0  0  0  0  0  0  0  0
    0.0000    0.0000    0.0000 H   0  0  0  0  0  0  0  0  0  0  0  0
    0.0000    0.0000    0.0000 H   0  0  0  0  0  0  0  0  0  0  0  0
    0.0000    0.0000    0.0000 H   0  0  0  0  0  0  0  0  0  0  0  0
    0.0000    0.0000    0.0000 H   0  0  0  0  0  0  0  0  0  0  0  0
   10.8876    5.1994   10.5084 C   0  0  0  0  0  0  0  0  0  0  0  0
    9.6261    5.8039   10.7662 O   0  0  0  0  0  0  0  0  0  0  0  0
    8.9955    5.6250   11.9912 C   0  0  0  0  0  0  0  0  0  0  0  0
    7.7683    6.2508   12.1562 C   0  0  0  0  0  0  0  0  0  0  0  0
    7.0967    6.1041   13.3608 C   0  0  0  0  0  0  0  0  0  0  0  0
    7.6764    5.3389   14.3529 C   0  0  0  0  0  0  0  0  0  0  0  0
    8.8847    4.7253   14.1847 C   0  0  0  0  0  0  0  0  0  0  0  0
    9.5589    4.8660   12.9903 C   0  0  0  0  0  0  0  0  0  0  0  0
   11.2290    5.5376    9.4999 H   0  0  0  0  0  0  0  0  0  0  0  0
   10.7589    4.0970   10.4714 H   0  0  0  0  0  0  0  0  0  0  0  0
    7.3420    6.8410   11.3640 H   0  0  0  0  0  0  0  0  0  0  0  0
    6.1449    6.5894   13.4890 H   0  0  0  0  0  0  0  0  0  0  0  0
    7.1473    5.2223   15.3042 H   0  0  0  0  0  0  0  0  0  0  0  0
    9.3316    4.1199   14.9845 H   0  0  0  0  0  0  0  0  0  0  0  0
   10.5230    4.3908   12.8231 H   0  0  0  0  0  0  0  0  0  0  0  0
  1  3  2  0
  1  4  1  0
  2  4  1  0
  1  5  1  0
  2  6  1  0
  5  6  1  0
  6  7  2  3
  5  8  1  0
  4 10  1  0
 10 11  2  0
 11 12  1  0
 12 13  2  0
 13 14  1  0
 10 15  1  0
 14 15  2  0
  9 16  2  0
  9 17  1  0
 14 18  1  0
 17 18  2  0
 18 19  1  0
 16 20  1  0
 19 20  2  0
  2 21  1  0
  7 22  1  0
  8 23  1  0
  8 24  1  0
  8 25  1  0
 11 26  1  0
 12 27  1  0
 13 28  1  0
 15 29  1  0
 16 30  1  0
 17 31  1  0
 19 32  1  0
 20 33  1  0
 34 35  1  0
 35 36  1  0
 36 37  2  0
 37 38  1  0
 38 39  2  0
 39 40  1  0
 40 41  2  0
 41 36  1  0
 34 42  1  0
 34 43  1  0
 37 44  1  0
 38 45  1  0
 39 46  1  0
 40 47  1  0
 41 48  1  0
  4 34  1  6
M  END
>  <attachment_point>  (282) 
21

>  <score>  (282) 
<NA>

$$$$
4djw
     RDKit          3D

 49 51  0  0  0  0  0  0  0  0999 V2000
   22.4950   11.8750   22.5810 C   0  0  0  0  0  0  0  0  0  0  0  0
   22.5380    9.4930   22.4640 N   0  0  0  0  0  0  0  0  0  0  0  0
   22.3600   13.0630   22.3480 O   0  0  0  0  0  0  0  0  0  0  0  0
   22.3390   10.6680   21.5610 C   0  0  2  0  0  0  0  0  0  0  0  0
   22.7860   11.3350   23.8120 N   0  0  0  0  0  0  0  0  0  0  0  0
   22.7800    9.9140   23.7010 C   0  0  0  0  0  0  0  0  0  0  0  0
   22.9970    9.1110   24.7490 N   0  0  0  0  0  0  0  0  0  0  0  0
   23.0220   12.1410   25.0180 C   0  0  0  0  0  0  0  0  0  0  0  0
   29.1260    9.8230   21.7090 N   0  0  0  0  0  0  0  0  0  0  0  0
   23.4880   10.6920   20.5300 C   0  0  0  0  0  0  0  0  0  0  0  0
   23.2110   10.7890   19.1730 C   0  0  0  0  0  0  0  0  0  0  0  0
   24.2350   10.8650   18.2430 C   0  0  0  0  0  0  0  0  0  0  0  0
   25.5500   10.8410   18.6560 C   0  0  0  0  0  0  0  0  0  0  0  0
   25.8710   10.7460   20.0070 C   0  0  0  0  0  0  0  0  0  0  0  0
   24.8260   10.6610   20.9430 C   0  0  0  0  0  0  0  0  0  0  0  0
   29.8540   10.9130   21.4510 C   0  0  0  0  0  0  0  0  0  0  0  0
   27.8830    9.7800   21.2080 C   0  0  0  0  0  0  0  0  0  0  0  0
   27.3000   10.8010   20.4650 C   0  0  0  0  0  0  0  0  0  0  0  0
   28.0930   11.9190   20.2200 C   0  0  0  0  0  0  0  0  0  0  0  0
   29.3850   11.9780   20.7130 C   0  0  0  0  0  0  0  0  0  0  0  0
    0.0000    0.0000    0.0000 H   0  0  0  0  0  0  0  0  0  0  0  0
    0.0000    0.0000    0.0000 H   0  0  0  0  0  0  0  0  0  0  0  0
    0.0000    0.0000    0.0000 H   0  0  0  0  0  0  0  0  0  0  0  0
    0.0000    0.0000    0.0000 H   0  0  0  0  0  0  0  0  0  0  0  0
    0.0000    0.0000    0.0000 H   0  0  0  0  0  0  0  0  0  0  0  0
    0.0000    0.0000    0.0000 H   0  0  0  0  0  0  0  0  0  0  0  0
    0.0000    0.0000    0.0000 H   0  0  0  0  0  0  0  0  0  0  0  0
    0.0000    0.0000    0.0000 H   0  0  0  0  0  0  0  0  0  0  0  0
    0.0000    0.0000    0.0000 H   0  0  0  0  0  0  0  0  0  0  0  0
    0.0000    0.0000    0.0000 H   0  0  0  0  0  0  0  0  0  0  0  0
    0.0000    0.0000    0.0000 H   0  0  0  0  0  0  0  0  0  0  0  0
    0.0000    0.0000    0.0000 H   0  0  0  0  0  0  0  0  0  0  0  0
    0.0000    0.0000    0.0000 H   0  0  0  0  0  0  0  0  0  0  0  0
   10.8826    5.1970   10.5036 C   0  0  0  0  0  0  0  0  0  0  0  0
   11.2741    3.8500    9.9456 C   0  0  0  0  0  0  0  0  0  0  0  0
   12.5907    3.8762    9.2350 C   0  0  0  0  0  0  0  0  0  0  0  0
   13.7353    4.2990   10.1192 C   0  0  0  0  0  0  0  0  0  0  0  0
   12.8862    2.4671    8.7596 C   0  0  0  0  0  0  0  0  0  0  0  0
   10.7529    5.9499    9.7005 H   0  0  0  0  0  0  0  0  0  0  0  0
    9.8963    5.1085   11.0028 H   0  0  0  0  0  0  0  0  0  0  0  0
   10.4988    3.5735    9.2016 H   0  0  0  0  0  0  0  0  0  0  0  0
   11.2457    3.0815   10.7431 H   0  0  0  0  0  0  0  0  0  0  0  0
   12.5643    4.5222    8.3529 H   0  0  0  0  0  0  0  0  0  0  0  0
   14.6512    3.8195    9.7156 H   0  0  0  0  0  0  0  0  0  0  0  0
   13.8887    5.3764   10.1610 H   0  0  0  0  0  0  0  0  0  0  0  0
   13.5647    3.8377   11.1333 H   0  0  0  0  0  0  0  0  0  0  0  0
   13.8546    2.0822    9.1577 H   0  0  0  0  0  0  0  0  0  0  0  0
   12.9679    2.4172    7.6559 H   0  0  0  0  0  0  0  0  0  0  0  0
   12.1174    1.7359    9.1237 H   0  0  0  0  0  0  0  0  0  0  0  0
  1  3  2  0
  1  4  1  0
  2  4  1  0
  1  5  1  0
  2  6  1  0
  5  6  1  0
  6  7  2  3
  5  8  1  0
  4 10  1  0
 10 11  2  0
 11 12  1  0
 12 13  2  0
 13 14  1  0
 10 15  1  0
 14 15  2  0
  9 16  2  0
  9 17  1  0
 14 18  1  0
 17 18  2  0
 18 19  1  0
 16 20  1  0
 19 20  2  0
  2 21  1  0
  7 22  1  0
  8 23  1  0
  8 24  1  0
  8 25  1  0
 11 26  1  0
 12 27  1  0
 13 28  1  0
 15 29  1  0
 16 30  1  0
 17 31  1  0
 19 32  1  0
 20 33  1  0
 34 35  1  0
 35 36  1  0
 36 37  1  0
 36 38  1  0
 34 39  1  0
 34 40  1  0
 35 41  1  0
 35 42  1  0
 36 43  1  0
 37 44  1  0
 37 45  1  0
 37 46  1  0
 38 47  1  0
 38 48  1  0
 38 49  1  0
  4 34  1  6
M  END
>  <attachment_point>  (283) 
21

>  <score>  (283) 
<NA>

$$$$
4djw
     RDKit          3D

 47 50  0  0  0  0  0  0  0  0999 V2000
   22.4950   11.8750   22.5810 C   0  0  0  0  0  0  0  0  0  0  0  0
   22.5380    9.4930   22.4640 N   0  0  0  0  0  0  0  0  0  0  0  0
   22.3600   13.0630   22.3480 O   0  0  0  0  0  0  0  0  0  0  0  0
   22.3390   10.6680   21.5610 C   0  0  2  0  0  0  0  0  0  0  0  0
   22.7860   11.3350   23.8120 N   0  0  0  0  0  0  0  0  0  0  0  0
   22.7800    9.9140   23.7010 C   0  0  0  0  0  0  0  0  0  0  0  0
   22.9970    9.1110   24.7490 N   0  0  0  0  0  0  0  0  0  0  0  0
   23.0220   12.1410   25.0180 C   0  0  0  0  0  0  0  0  0  0  0  0
   29.1260    9.8230   21.7090 N   0  0  0  0  0  0  0  0  0  0  0  0
   23.4880   10.6920   20.5300 C   0  0  0  0  0  0  0  0  0  0  0  0
   23.2110   10.7890   19.1730 C   0  0  0  0  0  0  0  0  0  0  0  0
   24.2350   10.8650   18.2430 C   0  0  0  0  0  0  0  0  0  0  0  0
   25.5500   10.8410   18.6560 C   0  0  0  0  0  0  0  0  0  0  0  0
   25.8710   10.7460   20.0070 C   0  0  0  0  0  0  0  0  0  0  0  0
   24.8260   10.6610   20.9430 C   0  0  0  0  0  0  0  0  0  0  0  0
   29.8540   10.9130   21.4510 C   0  0  0  0  0  0  0  0  0  0  0  0
   27.8830    9.7800   21.2080 C   0  0  0  0  0  0  0  0  0  0  0  0
   27.3000   10.8010   20.4650 C   0  0  0  0  0  0  0  0  0  0  0  0
   28.0930   11.9190   20.2200 C   0  0  0  0  0  0  0  0  0  0  0  0
   29.3850   11.9780   20.7130 C   0  0  0  0  0  0  0  0  0  0  0  0
    0.0000    0.0000    0.0000 H   0  0  0  0  0  0  0  0  0  0  0  0
    0.0000    0.0000    0.0000 H   0  0  0  0  0  0  0  0  0  0  0  0
    0.0000    0.0000    0.0000 H   0  0  0  0  0  0  0  0  0  0  0  0
    0.0000    0.0000    0.0000 H   0  0  0  0  0  0  0  0  0  0  0  0
    0.0000    0.0000    0.0000 H   0  0  0  0  0  0  0  0  0  0  0  0
    0.0000    0.0000    0.0000 H   0  0  0  0  0  0  0  0  0  0  0  0
    0.0000    0.0000    0.0000 H   0  0  0  0  0  0  0  0  0  0  0  0
    0.0000    0.0000    0.0000 H   0  0  0  0  0  0  0  0  0  0  0  0
    0.0000    0.0000    0.0000 H   0  0  0  0  0  0  0  0  0  0  0  0
    0.0000    0.0000    0.0000 H   0  0  0  0  0  0  0  0  0  0  0  0
    0.0000    0.0000    0.0000 H   0  0  0  0  0  0  0  0  0  0  0  0
    0.0000    0.0000    0.0000 H   0  0  0  0  0  0  0  0  0  0  0  0
    0.0000    0.0000    0.0000 H   0  0  0  0  0  0  0  0  0  0  0  0
   10.8868    5.1990   10.5076 N   0  0  0  0  0  0  0  0  0  0  0  0
   11.4133    4.8320    9.2480 C   0  0  0  0  0  0  0  0  0  0  0  0
   12.6688    4.9306    9.0281 O   0  0  0  0  0  0  0  0  0  0  0  0
   10.5027    4.3484    8.2299 C   0  0  0  0  0  0  0  0  0  0  0  0
    9.1435    4.2201    8.4064 C   0  0  0  0  0  0  0  0  0  0  0  0
    8.2892    3.7550    7.4185 C   0  0  0  0  0  0  0  0  0  0  0  0
    8.8257    3.4039    6.2004 C   0  0  0  0  0  0  0  0  0  0  0  0
   10.1516    3.5194    6.0009 N   0  0  0  0  0  0  0  0  0  0  0  0
   10.9705    3.9708    6.9636 C   0  0  0  0  0  0  0  0  0  0  0  0
    9.8933    5.1619   10.7987 H   0  0  0  0  0  0  0  0  0  0  0  0
    8.6983    4.4888    9.3523 H   0  0  0  0  0  0  0  0  0  0  0  0
    7.2268    3.6620    7.5775 H   0  0  0  0  0  0  0  0  0  0  0  0
    8.1573    3.0339    5.4102 H   0  0  0  0  0  0  0  0  0  0  0  0
   12.0456    4.0571    6.7803 H   0  0  0  0  0  0  0  0  0  0  0  0
  1  3  2  0
  1  4  1  0
  2  4  1  0
  1  5  1  0
  2  6  1  0
  5  6  1  0
  6  7  2  3
  5  8  1  0
  4 10  1  0
 10 11  2  0
 11 12  1  0
 12 13  2  0
 13 14  1  0
 10 15  1  0
 14 15  2  0
  9 16  2  0
  9 17  1  0
 14 18  1  0
 17 18  2  0
 18 19  1  0
 16 20  1  0
 19 20  2  0
  2 21  1  0
  7 22  1  0
  8 23  1  0
  8 24  1  0
  8 25  1  0
 11 26  1  0
 12 27  1  0
 13 28  1  0
 15 29  1  0
 16 30  1  0
 17 31  1  0
 19 32  1  0
 20 33  1  0
 34 35  1  0
 35 36  2  0
 35 37  1  0
 37 38  2  0
 38 39  1  0
 39 40  2  0
 40 41  1  0
 41 42  2  0
 42 37  1  0
 34 43  1  0
 38 44  1  0
 39 45  1  0
 40 46  1  0
 42 47  1  0
  4 34  1  6
M  END
>  <attachment_point>  (284) 
21

>  <score>  (284) 
<NA>

$$$$
4djw
     RDKit          3D

 43 45  0  0  0  0  0  0  0  0999 V2000
   22.4950   11.8750   22.5810 C   0  0  0  0  0  0  0  0  0  0  0  0
   22.5380    9.4930   22.4640 N   0  0  0  0  0  0  0  0  0  0  0  0
   22.3600   13.0630   22.3480 O   0  0  0  0  0  0  0  0  0  0  0  0
   22.3390   10.6680   21.5610 C   0  0  2  0  0  0  0  0  0  0  0  0
   22.7860   11.3350   23.8120 N   0  0  0  0  0  0  0  0  0  0  0  0
   22.7800    9.9140   23.7010 C   0  0  0  0  0  0  0  0  0  0  0  0
   22.9970    9.1110   24.7490 N   0  0  0  0  0  0  0  0  0  0  0  0
   23.0220   12.1410   25.0180 C   0  0  0  0  0  0  0  0  0  0  0  0
   29.1260    9.8230   21.7090 N   0  0  0  0  0  0  0  0  0  0  0  0
   23.4880   10.6920   20.5300 C   0  0  0  0  0  0  0  0  0  0  0  0
   23.2110   10.7890   19.1730 C   0  0  0  0  0  0  0  0  0  0  0  0
   24.2350   10.8650   18.2430 C   0  0  0  0  0  0  0  0  0  0  0  0
   25.5500   10.8410   18.6560 C   0  0  0  0  0  0  0  0  0  0  0  0
   25.8710   10.7460   20.0070 C   0  0  0  0  0  0  0  0  0  0  0  0
   24.8260   10.6610   20.9430 C   0  0  0  0  0  0  0  0  0  0  0  0
   29.8540   10.9130   21.4510 C   0  0  0  0  0  0  0  0  0  0  0  0
   27.8830    9.7800   21.2080 C   0  0  0  0  0  0  0  0  0  0  0  0
   27.3000   10.8010   20.4650 C   0  0  0  0  0  0  0  0  0  0  0  0
   28.0930   11.9190   20.2200 C   0  0  0  0  0  0  0  0  0  0  0  0
   29.3850   11.9780   20.7130 C   0  0  0  0  0  0  0  0  0  0  0  0
    0.0000    0.0000    0.0000 H   0  0  0  0  0  0  0  0  0  0  0  0
    0.0000    0.0000    0.0000 H   0  0  0  0  0  0  0  0  0  0  0  0
    0.0000    0.0000    0.0000 H   0  0  0  0  0  0  0  0  0  0  0  0
    0.0000    0.0000    0.0000 H   0  0  0  0  0  0  0  0  0  0  0  0
    0.0000    0.0000    0.0000 H   0  0  0  0  0  0  0  0  0  0  0  0
    0.0000    0.0000    0.0000 H   0  0  0  0  0  0  0  0  0  0  0  0
    0.0000    0.0000    0.0000 H   0  0  0  0  0  0  0  0  0  0  0  0
    0.0000    0.0000    0.0000 H   0  0  0  0  0  0  0  0  0  0  0  0
    0.0000    0.0000    0.0000 H   0  0  0  0  0  0  0  0  0  0  0  0
    0.0000    0.0000    0.0000 H   0  0  0  0  0  0  0  0  0  0  0  0
    0.0000    0.0000    0.0000 H   0  0  0  0  0  0  0  0  0  0  0  0
    0.0000    0.0000    0.0000 H   0  0  0  0  0  0  0  0  0  0  0  0
    0.0000    0.0000    0.0000 H   0  0  0  0  0  0  0  0  0  0  0  0
   10.8660    5.1890   10.4875 S   0  0  0  0  0  6  0  0  0  0  0  0
   10.1789    3.9163   10.9514 O   0  0  0  0  0  0  0  0  0  0  0  0
   11.6125    4.8223    9.2373 O   0  0  0  0  0  0  0  0  0  0  0  0
    9.6192    6.3921   10.1260 C   0  0  0  0  0  0  0  0  0  0  0  0
    8.8515    6.8008   11.3623 C   0  0  0  0  0  0  0  0  0  0  0  0
    8.8877    5.9376    9.4280 H   0  0  0  0  0  0  0  0  0  0  0  0
   10.0610    7.2936    9.6695 H   0  0  0  0  0  0  0  0  0  0  0  0
    7.9489    7.3637   10.9971 H   0  0  0  0  0  0  0  0  0  0  0  0
    9.4603    7.4256   12.0473 H   0  0  0  0  0  0  0  0  0  0  0  0
    8.4636    5.9449   11.9238 H   0  0  0  0  0  0  0  0  0  0  0  0
  1  3  2  0
  1  4  1  0
  2  4  1  0
  1  5  1  0
  2  6  1  0
  5  6  1  0
  6  7  2  3
  5  8  1  0
  4 10  1  6
 10 11  2  0
 11 12  1  0
 12 13  2  0
 13 14  1  0
 10 15  1  0
 14 15  2  0
  9 16  2  0
  9 17  1  0
 14 18  1  0
 17 18  2  0
 18 19  1  0
 16 20  1  0
 19 20  2  0
  2 21  1  0
  7 22  1  0
  8 23  1  0
  8 24  1  0
  8 25  1  0
 11 26  1  0
 12 27  1  0
 13 28  1  0
 15 29  1  0
 16 30  1  0
 17 31  1  0
 19 32  1  0
 20 33  1  0
 34 35  2  0
 34 36  2  0
 34 37  1  0
 37 38  1  0
 37 39  1  0
 37 40  1  0
 38 41  1  0
 38 42  1  0
 38 43  1  0
  4 34  1  0
M  END
>  <attachment_point>  (285) 
21

>  <score>  (285) 
<NA>

$$$$
4djw
     RDKit          3D

 51 53  0  0  0  0  0  0  0  0999 V2000
   22.4950   11.8750   22.5810 C   0  0  0  0  0  0  0  0  0  0  0  0
   22.5380    9.4930   22.4640 N   0  0  0  0  0  0  0  0  0  0  0  0
   22.3600   13.0630   22.3480 O   0  0  0  0  0  0  0  0  0  0  0  0
   22.3390   10.6680   21.5610 C   0  0  2  0  0  0  0  0  0  0  0  0
   22.7860   11.3350   23.8120 N   0  0  0  0  0  0  0  0  0  0  0  0
   22.7800    9.9140   23.7010 C   0  0  0  0  0  0  0  0  0  0  0  0
   22.9970    9.1110   24.7490 N   0  0  0  0  0  0  0  0  0  0  0  0
   23.0220   12.1410   25.0180 C   0  0  0  0  0  0  0  0  0  0  0  0
   29.1260    9.8230   21.7090 N   0  0  0  0  0  0  0  0  0  0  0  0
   23.4880   10.6920   20.5300 C   0  0  0  0  0  0  0  0  0  0  0  0
   23.2110   10.7890   19.1730 C   0  0  0  0  0  0  0  0  0  0  0  0
   24.2350   10.8650   18.2430 C   0  0  0  0  0  0  0  0  0  0  0  0
   25.5500   10.8410   18.6560 C   0  0  0  0  0  0  0  0  0  0  0  0
   25.8710   10.7460   20.0070 C   0  0  0  0  0  0  0  0  0  0  0  0
   24.8260   10.6610   20.9430 C   0  0  0  0  0  0  0  0  0  0  0  0
   29.8540   10.9130   21.4510 C   0  0  0  0  0  0  0  0  0  0  0  0
   27.8830    9.7800   21.2080 C   0  0  0  0  0  0  0  0  0  0  0  0
   27.3000   10.8010   20.4650 C   0  0  0  0  0  0  0  0  0  0  0  0
   28.0930   11.9190   20.2200 C   0  0  0  0  0  0  0  0  0  0  0  0
   29.3850   11.9780   20.7130 C   0  0  0  0  0  0  0  0  0  0  0  0
    0.0000    0.0000    0.0000 H   0  0  0  0  0  0  0  0  0  0  0  0
    0.0000    0.0000    0.0000 H   0  0  0  0  0  0  0  0  0  0  0  0
    0.0000    0.0000    0.0000 H   0  0  0  0  0  0  0  0  0  0  0  0
    0.0000    0.0000    0.0000 H   0  0  0  0  0  0  0  0  0  0  0  0
    0.0000    0.0000    0.0000 H   0  0  0  0  0  0  0  0  0  0  0  0
    0.0000    0.0000    0.0000 H   0  0  0  0  0  0  0  0  0  0  0  0
    0.0000    0.0000    0.0000 H   0  0  0  0  0  0  0  0  0  0  0  0
    0.0000    0.0000    0.0000 H   0  0  0  0  0  0  0  0  0  0  0  0
    0.0000    0.0000    0.0000 H   0  0  0  0  0  0  0  0  0  0  0  0
    0.0000    0.0000    0.0000 H   0  0  0  0  0  0  0  0  0  0  0  0
    0.0000    0.0000    0.0000 H   0  0  0  0  0  0  0  0  0  0  0  0
    0.0000    0.0000    0.0000 H   0  0  0  0  0  0  0  0  0  0  0  0
    0.0000    0.0000    0.0000 H   0  0  0  0  0  0  0  0  0  0  0  0
   10.7937    5.1545   10.4178 N   0  0  0  0  0  0  0  0  0  0  0  0
    9.5397    5.4578   10.8553 C   0  0  0  0  0  0  0  0  0  0  0  0
    9.3216    6.0567   11.9288 O   0  0  0  0  0  0  0  0  0  0  0  0
    8.3971    5.1385   10.1660 O   0  0  0  0  0  0  0  0  0  0  0  0
    7.1054    5.3386   10.4105 C   0  0  0  0  0  0  0  0  0  0  0  0
    6.5080    6.6713   10.5758 C   0  0  0  0  0  0  0  0  0  0  0  0
    6.3463    4.6471    9.2530 C   0  0  0  0  0  0  0  0  0  0  0  0
    6.7169    4.4899   11.6373 C   0  0  0  0  0  0  0  0  0  0  0  0
   11.1984    4.7295    9.6787 H   0  0  0  0  0  0  0  0  0  0  0  0
    5.7390    6.6876   11.3799 H   0  0  0  0  0  0  0  0  0  0  0  0
    7.1911    7.5015   10.7964 H   0  0  0  0  0  0  0  0  0  0  0  0
    5.9429    7.0004    9.6563 H   0  0  0  0  0  0  0  0  0  0  0  0
    6.8743    3.7508    8.9136 H   0  0  0  0  0  0  0  0  0  0  0  0
    6.4140    5.3952    8.4100 H   0  0  0  0  0  0  0  0  0  0  0  0
    5.2917    4.4996    9.5069 H   0  0  0  0  0  0  0  0  0  0  0  0
    7.4819    3.7583   11.8810 H   0  0  0  0  0  0  0  0  0  0  0  0
    6.6253    5.1820   12.5227 H   0  0  0  0  0  0  0  0  0  0  0  0
    5.7031    4.0566   11.5098 H   0  0  0  0  0  0  0  0  0  0  0  0
  1  3  2  0
  1  4  1  0
  2  4  1  0
  1  5  1  0
  2  6  1  0
  5  6  1  0
  6  7  2  3
  5  8  1  0
  4 10  1  0
 10 11  2  0
 11 12  1  0
 12 13  2  0
 13 14  1  0
 10 15  1  0
 14 15  2  0
  9 16  2  0
  9 17  1  0
 14 18  1  0
 17 18  2  0
 18 19  1  0
 16 20  1  0
 19 20  2  0
  2 21  1  0
  7 22  1  0
  8 23  1  0
  8 24  1  0
  8 25  1  0
 11 26  1  0
 12 27  1  0
 13 28  1  0
 15 29  1  0
 16 30  1  0
 17 31  1  0
 19 32  1  0
 20 33  1  0
 34 35  1  0
 35 36  2  0
 35 37  1  0
 37 38  1  0
 38 39  1  0
 38 40  1  0
 38 41  1  0
 34 42  1  0
 39 43  1  0
 39 44  1  0
 39 45  1  0
 40 46  1  0
 40 47  1  0
 40 48  1  0
 41 49  1  0
 41 50  1  0
 41 51  1  0
  4 34  1  6
M  END
>  <attachment_point>  (286) 
21

>  <score>  (286) 
<NA>

$$$$
4djw
     RDKit          3D

 49 52  0  0  0  0  0  0  0  0999 V2000
   22.4950   11.8750   22.5810 C   0  0  0  0  0  0  0  0  0  0  0  0
   22.5380    9.4930   22.4640 N   0  0  0  0  0  0  0  0  0  0  0  0
   22.3600   13.0630   22.3480 O   0  0  0  0  0  0  0  0  0  0  0  0
   22.3390   10.6680   21.5610 C   0  0  2  0  0  0  0  0  0  0  0  0
   22.7860   11.3350   23.8120 N   0  0  0  0  0  0  0  0  0  0  0  0
   22.7800    9.9140   23.7010 C   0  0  0  0  0  0  0  0  0  0  0  0
   22.9970    9.1110   24.7490 N   0  0  0  0  0  0  0  0  0  0  0  0
   23.0220   12.1410   25.0180 C   0  0  0  0  0  0  0  0  0  0  0  0
   29.1260    9.8230   21.7090 N   0  0  0  0  0  0  0  0  0  0  0  0
   23.4880   10.6920   20.5300 C   0  0  0  0  0  0  0  0  0  0  0  0
   23.2110   10.7890   19.1730 C   0  0  0  0  0  0  0  0  0  0  0  0
   24.2350   10.8650   18.2430 C   0  0  0  0  0  0  0  0  0  0  0  0
   25.5500   10.8410   18.6560 C   0  0  0  0  0  0  0  0  0  0  0  0
   25.8710   10.7460   20.0070 C   0  0  0  0  0  0  0  0  0  0  0  0
   24.8260   10.6610   20.9430 C   0  0  0  0  0  0  0  0  0  0  0  0
   29.8540   10.9130   21.4510 C   0  0  0  0  0  0  0  0  0  0  0  0
   27.8830    9.7800   21.2080 C   0  0  0  0  0  0  0  0  0  0  0  0
   27.3000   10.8010   20.4650 C   0  0  0  0  0  0  0  0  0  0  0  0
   28.0930   11.9190   20.2200 C   0  0  0  0  0  0  0  0  0  0  0  0
   29.3850   11.9780   20.7130 C   0  0  0  0  0  0  0  0  0  0  0  0
    0.0000    0.0000    0.0000 H   0  0  0  0  0  0  0  0  0  0  0  0
    0.0000    0.0000    0.0000 H   0  0  0  0  0  0  0  0  0  0  0  0
    0.0000    0.0000    0.0000 H   0  0  0  0  0  0  0  0  0  0  0  0
    0.0000    0.0000    0.0000 H   0  0  0  0  0  0  0  0  0  0  0  0
    0.0000    0.0000    0.0000 H   0  0  0  0  0  0  0  0  0  0  0  0
    0.0000    0.0000    0.0000 H   0  0  0  0  0  0  0  0  0  0  0  0
    0.0000    0.0000    0.0000 H   0  0  0  0  0  0  0  0  0  0  0  0
    0.0000    0.0000    0.0000 H   0  0  0  0  0  0  0  0  0  0  0  0
    0.0000    0.0000    0.0000 H   0  0  0  0  0  0  0  0  0  0  0  0
    0.0000    0.0000    0.0000 H   0  0  0  0  0  0  0  0  0  0  0  0
    0.0000    0.0000    0.0000 H   0  0  0  0  0  0  0  0  0  0  0  0
    0.0000    0.0000    0.0000 H   0  0  0  0  0  0  0  0  0  0  0  0
    0.0000    0.0000    0.0000 H   0  0  0  0  0  0  0  0  0  0  0  0
   10.9471    5.2278   10.5659 O   0  0  0  0  0  0  0  0  0  0  0  0
   10.6076    6.0262    9.4680 C   0  0  0  0  0  0  0  0  0  0  0  0
    9.5767    5.2693    8.6851 C   0  0  2  0  0  0  0  0  0  0  0  0
   10.1361    4.0024    8.0772 C   0  0  0  0  0  0  0  0  0  0  0  0
    9.1399    3.7587    6.9454 C   0  0  0  0  0  0  0  0  0  0  0  0
    8.2559    4.9908    7.0224 C   0  0  0  0  0  0  0  0  0  0  0  0
    9.1420    5.9534    7.5508 O   0  0  0  0  0  0  0  0  0  0  0  0
   11.4762    6.3331    8.8732 H   0  0  0  0  0  0  0  0  0  0  0  0
   10.1350    6.9434    9.8608 H   0  0  0  0  0  0  0  0  0  0  0  0
    8.7280    5.0443    9.3342 H   0  0  0  0  0  0  0  0  0  0  0  0
   10.0931    3.1373    8.7417 H   0  0  0  0  0  0  0  0  0  0  0  0
   11.1401    4.1777    7.6348 H   0  0  0  0  0  0  0  0  0  0  0  0
    9.6247    3.7305    5.9621 H   0  0  0  0  0  0  0  0  0  0  0  0
    8.5394    2.8228    7.1392 H   0  0  0  0  0  0  0  0  0  0  0  0
    7.8402    5.2861    6.0612 H   0  0  0  0  0  0  0  0  0  0  0  0
    7.4775    4.8586    7.8241 H   0  0  0  0  0  0  0  0  0  0  0  0
  1  3  2  0
  1  4  1  0
  2  4  1  0
  1  5  1  0
  2  6  1  0
  5  6  1  0
  6  7  2  3
  5  8  1  0
  4 10  1  0
 10 11  2  0
 11 12  1  0
 12 13  2  0
 13 14  1  0
 10 15  1  0
 14 15  2  0
  9 16  2  0
  9 17  1  0
 14 18  1  0
 17 18  2  0
 18 19  1  0
 16 20  1  0
 19 20  2  0
  2 21  1  0
  7 22  1  0
  8 23  1  0
  8 24  1  0
  8 25  1  0
 11 26  1  0
 12 27  1  0
 13 28  1  0
 15 29  1  0
 16 30  1  0
 17 31  1  0
 19 32  1  0
 20 33  1  0
 34 35  1  0
 35 36  1  0
 36 37  1  0
 37 38  1  0
 38 39  1  0
 39 40  1  0
 40 36  1  0
 35 41  1  0
 35 42  1  0
 36 43  1  1
 37 44  1  0
 37 45  1  0
 38 46  1  0
 38 47  1  0
 39 48  1  0
 39 49  1  0
  4 34  1  6
M  END
>  <attachment_point>  (287) 
21

>  <score>  (287) 
<NA>

$$$$
4djw
     RDKit          3D

 46 49  0  0  0  0  0  0  0  0999 V2000
   22.4950   11.8750   22.5810 C   0  0  0  0  0  0  0  0  0  0  0  0
   22.5380    9.4930   22.4640 N   0  0  0  0  0  0  0  0  0  0  0  0
   22.3600   13.0630   22.3480 O   0  0  0  0  0  0  0  0  0  0  0  0
   22.3390   10.6680   21.5610 C   0  0  2  0  0  0  0  0  0  0  0  0
   22.7860   11.3350   23.8120 N   0  0  0  0  0  0  0  0  0  0  0  0
   22.7800    9.9140   23.7010 C   0  0  0  0  0  0  0  0  0  0  0  0
   22.9970    9.1110   24.7490 N   0  0  0  0  0  0  0  0  0  0  0  0
   23.0220   12.1410   25.0180 C   0  0  0  0  0  0  0  0  0  0  0  0
   29.1260    9.8230   21.7090 N   0  0  0  0  0  0  0  0  0  0  0  0
   23.4880   10.6920   20.5300 C   0  0  0  0  0  0  0  0  0  0  0  0
   23.2110   10.7890   19.1730 C   0  0  0  0  0  0  0  0  0  0  0  0
   24.2350   10.8650   18.2430 C   0  0  0  0  0  0  0  0  0  0  0  0
   25.5500   10.8410   18.6560 C   0  0  0  0  0  0  0  0  0  0  0  0
   25.8710   10.7460   20.0070 C   0  0  0  0  0  0  0  0  0  0  0  0
   24.8260   10.6610   20.9430 C   0  0  0  0  0  0  0  0  0  0  0  0
   29.8540   10.9130   21.4510 C   0  0  0  0  0  0  0  0  0  0  0  0
   27.8830    9.7800   21.2080 C   0  0  0  0  0  0  0  0  0  0  0  0
   27.3000   10.8010   20.4650 C   0  0  0  0  0  0  0  0  0  0  0  0
   28.0930   11.9190   20.2200 C   0  0  0  0  0  0  0  0  0  0  0  0
   29.3850   11.9780   20.7130 C   0  0  0  0  0  0  0  0  0  0  0  0
    0.0000    0.0000    0.0000 H   0  0  0  0  0  0  0  0  0  0  0  0
    0.0000    0.0000    0.0000 H   0  0  0  0  0  0  0  0  0  0  0  0
    0.0000    0.0000    0.0000 H   0  0  0  0  0  0  0  0  0  0  0  0
    0.0000    0.0000    0.0000 H   0  0  0  0  0  0  0  0  0  0  0  0
    0.0000    0.0000    0.0000 H   0  0  0  0  0  0  0  0  0  0  0  0
    0.0000    0.0000    0.0000 H   0  0  0  0  0  0  0  0  0  0  0  0
    0.0000    0.0000    0.0000 H   0  0  0  0  0  0  0  0  0  0  0  0
    0.0000    0.0000    0.0000 H   0  0  0  0  0  0  0  0  0  0  0  0
    0.0000    0.0000    0.0000 H   0  0  0  0  0  0  0  0  0  0  0  0
    0.0000    0.0000    0.0000 H   0  0  0  0  0  0  0  0  0  0  0  0
    0.0000    0.0000    0.0000 H   0  0  0  0  0  0  0  0  0  0  0  0
    0.0000    0.0000    0.0000 H   0  0  0  0  0  0  0  0  0  0  0  0
    0.0000    0.0000    0.0000 H   0  0  0  0  0  0  0  0  0  0  0  0
   10.8953    5.2031   10.5159 C   0  0  0  0  0  0  0  0  0  0  0  0
   10.3905    6.0481    9.5318 C   0  0  0  0  0  0  0  0  0  0  0  0
    9.4532    5.5294    8.6596 C   0  0  0  0  0  0  0  0  0  0  0  0
    9.0065    4.2199    8.7299 C   0  0  0  0  0  0  0  0  0  0  0  0
    8.0078    3.6591    7.8042 C   0  0  0  0  0  0  0  0  0  0  0  0
    9.5265    3.4459    9.6994 N   0  0  0  0  0  0  0  0  0  0  0  0
   10.4422    3.8996   10.5758 C   0  0  0  0  0  0  0  0  0  0  0  0
   10.7357    7.0752    9.4704 H   0  0  0  0  0  0  0  0  0  0  0  0
    9.0441    6.1573    7.8880 H   0  0  0  0  0  0  0  0  0  0  0  0
    8.4422    2.7978    7.2193 H   0  0  0  0  0  0  0  0  0  0  0  0
    7.1160    3.2428    8.3067 H   0  0  0  0  0  0  0  0  0  0  0  0
    7.7111    4.4390    7.0614 H   0  0  0  0  0  0  0  0  0  0  0  0
   10.8271    3.2130   11.3455 H   0  0  0  0  0  0  0  0  0  0  0  0
  1  3  2  0
  1  4  1  0
  2  4  1  0
  1  5  1  0
  2  6  1  0
  5  6  1  0
  6  7  2  3
  5  8  1  0
  4 10  1  6
 10 11  2  0
 11 12  1  0
 12 13  2  0
 13 14  1  0
 10 15  1  0
 14 15  2  0
  9 16  2  0
  9 17  1  0
 14 18  1  0
 17 18  2  0
 18 19  1  0
 16 20  1  0
 19 20  2  0
  2 21  1  0
  7 22  1  0
  8 23  1  0
  8 24  1  0
  8 25  1  0
 11 26  1  0
 12 27  1  0
 13 28  1  0
 15 29  1  0
 16 30  1  0
 17 31  1  0
 19 32  1  0
 20 33  1  0
 34 35  2  0
 35 36  1  0
 36 37  2  0
 37 38  1  0
 37 39  1  0
 39 40  2  0
 40 34  1  0
 35 41  1  0
 36 42  1  0
 38 43  1  0
 38 44  1  0
 38 45  1  0
 40 46  1  0
  4 34  1  0
M  END
>  <attachment_point>  (288) 
21

>  <score>  (288) 
<NA>

$$$$
4djw
     RDKit          3D

 48 52  0  0  0  0  0  0  0  0999 V2000
   22.4950   11.8750   22.5810 C   0  0  0  0  0  0  0  0  0  0  0  0
   22.5380    9.4930   22.4640 N   0  0  0  0  0  0  0  0  0  0  0  0
   22.3600   13.0630   22.3480 O   0  0  0  0  0  0  0  0  0  0  0  0
   22.3390   10.6680   21.5610 C   0  0  2  0  0  0  0  0  0  0  0  0
   22.7860   11.3350   23.8120 N   0  0  0  0  0  0  0  0  0  0  0  0
   22.7800    9.9140   23.7010 C   0  0  0  0  0  0  0  0  0  0  0  0
   22.9970    9.1110   24.7490 N   0  0  0  0  0  0  0  0  0  0  0  0
   23.0220   12.1410   25.0180 C   0  0  0  0  0  0  0  0  0  0  0  0
   29.1260    9.8230   21.7090 N   0  0  0  0  0  0  0  0  0  0  0  0
   23.4880   10.6920   20.5300 C   0  0  0  0  0  0  0  0  0  0  0  0
   23.2110   10.7890   19.1730 C   0  0  0  0  0  0  0  0  0  0  0  0
   24.2350   10.8650   18.2430 C   0  0  0  0  0  0  0  0  0  0  0  0
   25.5500   10.8410   18.6560 C   0  0  0  0  0  0  0  0  0  0  0  0
   25.8710   10.7460   20.0070 C   0  0  0  0  0  0  0  0  0  0  0  0
   24.8260   10.6610   20.9430 C   0  0  0  0  0  0  0  0  0  0  0  0
   29.8540   10.9130   21.4510 C   0  0  0  0  0  0  0  0  0  0  0  0
   27.8830    9.7800   21.2080 C   0  0  0  0  0  0  0  0  0  0  0  0
   27.3000   10.8010   20.4650 C   0  0  0  0  0  0  0  0  0  0  0  0
   28.0930   11.9190   20.2200 C   0  0  0  0  0  0  0  0  0  0  0  0
   29.3850   11.9780   20.7130 C   0  0  0  0  0  0  0  0  0  0  0  0
    0.0000    0.0000    0.0000 H   0  0  0  0  0  0  0  0  0  0  0  0
    0.0000    0.0000    0.0000 H   0  0  0  0  0  0  0  0  0  0  0  0
    0.0000    0.0000    0.0000 H   0  0  0  0  0  0  0  0  0  0  0  0
    0.0000    0.0000    0.0000 H   0  0  0  0  0  0  0  0  0  0  0  0
    0.0000    0.0000    0.0000 H   0  0  0  0  0  0  0  0  0  0  0  0
    0.0000    0.0000    0.0000 H   0  0  0  0  0  0  0  0  0  0  0  0
    0.0000    0.0000    0.0000 H   0  0  0  0  0  0  0  0  0  0  0  0
    0.0000    0.0000    0.0000 H   0  0  0  0  0  0  0  0  0  0  0  0
    0.0000    0.0000    0.0000 H   0  0  0  0  0  0  0  0  0  0  0  0
    0.0000    0.0000    0.0000 H   0  0  0  0  0  0  0  0  0  0  0  0
    0.0000    0.0000    0.0000 H   0  0  0  0  0  0  0  0  0  0  0  0
    0.0000    0.0000    0.0000 H   0  0  0  0  0  0  0  0  0  0  0  0
    0.0000    0.0000    0.0000 H   0  0  0  0  0  0  0  0  0  0  0  0
   10.8623    5.1873   10.4840 C   0  0  0  0  0  0  0  0  0  0  0  0
   10.4808    3.8831   10.3108 C   0  0  0  0  0  0  0  0  0  0  0  0
    9.5289    3.8494    9.3188 C   0  0  0  0  0  0  0  0  0  0  0  0
    8.7883    2.8381    8.7183 C   0  0  0  0  0  0  0  0  0  0  0  0
    7.8780    3.1023    7.7183 C   0  0  0  0  0  0  0  0  0  0  0  0
    7.6996    4.4040    7.3049 C   0  0  0  0  0  0  0  0  0  0  0  0
    8.4263    5.4156    7.8909 C   0  0  0  0  0  0  0  0  0  0  0  0
    9.3507    5.1586    8.9045 C   0  0  0  0  0  0  0  0  0  0  0  0
   10.1722    5.9444    9.6291 N   0  0  0  0  0  0  0  0  0  0  0  0
   10.8606    3.0422   10.8551 H   0  0  0  0  0  0  0  0  0  0  0  0
    8.9356    1.8287    9.0481 H   0  0  0  0  0  0  0  0  0  0  0  0
    7.2860    2.3425    7.2297 H   0  0  0  0  0  0  0  0  0  0  0  0
    6.9760    4.6307    6.5071 H   0  0  0  0  0  0  0  0  0  0  0  0
    8.3008    6.4295    7.5831 H   0  0  0  0  0  0  0  0  0  0  0  0
   10.2592    6.9782    9.5406 H   0  0  0  0  0  0  0  0  0  0  0  0
  1  3  2  0
  1  4  1  0
  2  4  1  0
  1  5  1  0
  2  6  1  0
  5  6  1  0
  6  7  2  3
  5  8  1  0
  4 10  1  6
 10 11  2  0
 11 12  1  0
 12 13  2  0
 13 14  1  0
 10 15  1  0
 14 15  2  0
  9 16  2  0
  9 17  1  0
 14 18  1  0
 17 18  2  0
 18 19  1  0
 16 20  1  0
 19 20  2  0
  2 21  1  0
  7 22  1  0
  8 23  1  0
  8 24  1  0
  8 25  1  0
 11 26  1  0
 12 27  1  0
 13 28  1  0
 15 29  1  0
 16 30  1  0
 17 31  1  0
 19 32  1  0
 20 33  1  0
 34 35  2  0
 35 36  1  0
 36 37  2  0
 37 38  1  0
 38 39  2  0
 39 40  1  0
 40 41  2  0
 41 42  1  0
 42 34  1  0
 41 36  1  0
 35 43  1  0
 37 44  1  0
 38 45  1  0
 39 46  1  0
 40 47  1  0
 42 48  1  0
  4 34  1  0
M  END
>  <attachment_point>  (289) 
21

>  <score>  (289) 
<NA>

$$$$
4djw
     RDKit          3D

 47 49  0  0  0  0  0  0  0  0999 V2000
   22.4950   11.8750   22.5810 C   0  0  0  0  0  0  0  0  0  0  0  0
   22.5380    9.4930   22.4640 N   0  0  0  0  0  0  0  0  0  0  0  0
   22.3600   13.0630   22.3480 O   0  0  0  0  0  0  0  0  0  0  0  0
   22.3390   10.6680   21.5610 C   0  0  2  0  0  0  0  0  0  0  0  0
   22.7860   11.3350   23.8120 N   0  0  0  0  0  0  0  0  0  0  0  0
   22.7800    9.9140   23.7010 C   0  0  0  0  0  0  0  0  0  0  0  0
   22.9970    9.1110   24.7490 N   0  0  0  0  0  0  0  0  0  0  0  0
   23.0220   12.1410   25.0180 C   0  0  0  0  0  0  0  0  0  0  0  0
   29.1260    9.8230   21.7090 N   0  0  0  0  0  0  0  0  0  0  0  0
   23.4880   10.6920   20.5300 C   0  0  0  0  0  0  0  0  0  0  0  0
   23.2110   10.7890   19.1730 C   0  0  0  0  0  0  0  0  0  0  0  0
   24.2350   10.8650   18.2430 C   0  0  0  0  0  0  0  0  0  0  0  0
   25.5500   10.8410   18.6560 C   0  0  0  0  0  0  0  0  0  0  0  0
   25.8710   10.7460   20.0070 C   0  0  0  0  0  0  0  0  0  0  0  0
   24.8260   10.6610   20.9430 C   0  0  0  0  0  0  0  0  0  0  0  0
   29.8540   10.9130   21.4510 C   0  0  0  0  0  0  0  0  0  0  0  0
   27.8830    9.7800   21.2080 C   0  0  0  0  0  0  0  0  0  0  0  0
   27.3000   10.8010   20.4650 C   0  0  0  0  0  0  0  0  0  0  0  0
   28.0930   11.9190   20.2200 C   0  0  0  0  0  0  0  0  0  0  0  0
   29.3850   11.9780   20.7130 C   0  0  0  0  0  0  0  0  0  0  0  0
    0.0000    0.0000    0.0000 H   0  0  0  0  0  0  0  0  0  0  0  0
    0.0000    0.0000    0.0000 H   0  0  0  0  0  0  0  0  0  0  0  0
    0.0000    0.0000    0.0000 H   0  0  0  0  0  0  0  0  0  0  0  0
    0.0000    0.0000    0.0000 H   0  0  0  0  0  0  0  0  0  0  0  0
    0.0000    0.0000    0.0000 H   0  0  0  0  0  0  0  0  0  0  0  0
    0.0000    0.0000    0.0000 H   0  0  0  0  0  0  0  0  0  0  0  0
    0.0000    0.0000    0.0000 H   0  0  0  0  0  0  0  0  0  0  0  0
    0.0000    0.0000    0.0000 H   0  0  0  0  0  0  0  0  0  0  0  0
    0.0000    0.0000    0.0000 H   0  0  0  0  0  0  0  0  0  0  0  0
    0.0000    0.0000    0.0000 H   0  0  0  0  0  0  0  0  0  0  0  0
    0.0000    0.0000    0.0000 H   0  0  0  0  0  0  0  0  0  0  0  0
    0.0000    0.0000    0.0000 H   0  0  0  0  0  0  0  0  0  0  0  0
    0.0000    0.0000    0.0000 H   0  0  0  0  0  0  0  0  0  0  0  0
   10.8739    5.1928   10.4952 C   0  0  0  0  0  0  0  0  0  0  0  0
   11.5523    4.1942    9.6201 C   0  0  0  0  0  0  0  0  0  0  0  0
   10.9295    3.6173    8.6953 O   0  0  0  0  0  0  0  0  0  0  0  0
   12.9210    3.8613    9.8001 N   0  0  0  0  0  0  0  0  0  0  0  0
   13.6434    4.5280   10.8699 C   0  0  0  0  0  0  0  0  0  0  0  0
   13.5510    2.8870    8.9332 C   0  0  0  0  0  0  0  0  0  0  0  0
   10.0819    4.7066   11.1149 H   0  0  0  0  0  0  0  0  0  0  0  0
   10.4376    6.0229    9.9108 H   0  0  0  0  0  0  0  0  0  0  0  0
   14.1831    5.3836   10.4359 H   0  0  0  0  0  0  0  0  0  0  0  0
   14.3091    3.7987   11.3857 H   0  0  0  0  0  0  0  0  0  0  0  0
   12.9315    4.9305   11.6197 H   0  0  0  0  0  0  0  0  0  0  0  0
   14.5382    2.5868    9.3113 H   0  0  0  0  0  0  0  0  0  0  0  0
   13.5965    3.2843    7.8956 H   0  0  0  0  0  0  0  0  0  0  0  0
   12.9131    1.9802    8.9483 H   0  0  0  0  0  0  0  0  0  0  0  0
  1  3  2  0
  1  4  1  0
  2  4  1  0
  1  5  1  0
  2  6  1  0
  5  6  1  0
  6  7  2  3
  5  8  1  0
  4 10  1  0
 10 11  2  0
 11 12  1  0
 12 13  2  0
 13 14  1  0
 10 15  1  0
 14 15  2  0
  9 16  2  0
  9 17  1  0
 14 18  1  0
 17 18  2  0
 18 19  1  0
 16 20  1  0
 19 20  2  0
  2 21  1  0
  7 22  1  0
  8 23  1  0
  8 24  1  0
  8 25  1  0
 11 26  1  0
 12 27  1  0
 13 28  1  0
 15 29  1  0
 16 30  1  0
 17 31  1  0
 19 32  1  0
 20 33  1  0
 34 35  1  0
 35 36  2  0
 35 37  1  0
 37 38  1  0
 37 39  1  0
 34 40  1  0
 34 41  1  0
 38 42  1  0
 38 43  1  0
 38 44  1  0
 39 45  1  0
 39 46  1  0
 39 47  1  0
  4 34  1  6
M  END
>  <attachment_point>  (290) 
21

>  <score>  (290) 
<NA>

$$$$
4djw
     RDKit          3D

 58 62  0  0  0  0  0  0  0  0999 V2000
   22.4950   11.8750   22.5810 C   0  0  0  0  0  0  0  0  0  0  0  0
   22.5380    9.4930   22.4640 N   0  0  0  0  0  0  0  0  0  0  0  0
   22.3600   13.0630   22.3480 O   0  0  0  0  0  0  0  0  0  0  0  0
   22.3390   10.6680   21.5610 C   0  0  2  0  0  0  0  0  0  0  0  0
   22.7860   11.3350   23.8120 N   0  0  0  0  0  0  0  0  0  0  0  0
   22.7800    9.9140   23.7010 C   0  0  0  0  0  0  0  0  0  0  0  0
   22.9970    9.1110   24.7490 N   0  0  0  0  0  0  0  0  0  0  0  0
   23.0220   12.1410   25.0180 C   0  0  0  0  0  0  0  0  0  0  0  0
   29.1260    9.8230   21.7090 N   0  0  0  0  0  0  0  0  0  0  0  0
   23.4880   10.6920   20.5300 C   0  0  0  0  0  0  0  0  0  0  0  0
   23.2110   10.7890   19.1730 C   0  0  0  0  0  0  0  0  0  0  0  0
   24.2350   10.8650   18.2430 C   0  0  0  0  0  0  0  0  0  0  0  0
   25.5500   10.8410   18.6560 C   0  0  0  0  0  0  0  0  0  0  0  0
   25.8710   10.7460   20.0070 C   0  0  0  0  0  0  0  0  0  0  0  0
   24.8260   10.6610   20.9430 C   0  0  0  0  0  0  0  0  0  0  0  0
   29.8540   10.9130   21.4510 C   0  0  0  0  0  0  0  0  0  0  0  0
   27.8830    9.7800   21.2080 C   0  0  0  0  0  0  0  0  0  0  0  0
   27.3000   10.8010   20.4650 C   0  0  0  0  0  0  0  0  0  0  0  0
   28.0930   11.9190   20.2200 C   0  0  0  0  0  0  0  0  0  0  0  0
   29.3850   11.9780   20.7130 C   0  0  0  0  0  0  0  0  0  0  0  0
    0.0000    0.0000    0.0000 H   0  0  0  0  0  0  0  0  0  0  0  0
    0.0000    0.0000    0.0000 H   0  0  0  0  0  0  0  0  0  0  0  0
    0.0000    0.0000    0.0000 H   0  0  0  0  0  0  0  0  0  0  0  0
    0.0000    0.0000    0.0000 H   0  0  0  0  0  0  0  0  0  0  0  0
    0.0000    0.0000    0.0000 H   0  0  0  0  0  0  0  0  0  0  0  0
    0.0000    0.0000    0.0000 H   0  0  0  0  0  0  0  0  0  0  0  0
    0.0000    0.0000    0.0000 H   0  0  0  0  0  0  0  0  0  0  0  0
    0.0000    0.0000    0.0000 H   0  0  0  0  0  0  0  0  0  0  0  0
    0.0000    0.0000    0.0000 H   0  0  0  0  0  0  0  0  0  0  0  0
    0.0000    0.0000    0.0000 H   0  0  0  0  0  0  0  0  0  0  0  0
    0.0000    0.0000    0.0000 H   0  0  0  0  0  0  0  0  0  0  0  0
    0.0000    0.0000    0.0000 H   0  0  0  0  0  0  0  0  0  0  0  0
    0.0000    0.0000    0.0000 H   0  0  0  0  0  0  0  0  0  0  0  0
   10.9269    5.2182   10.5464 N   0  0  0  0  0  0  0  0  0  0  0  0
   10.7915    3.8278   10.4158 C   0  0  0  0  0  0  0  0  0  0  0  0
    9.7745    3.3056    9.4914 C   0  0  0  0  0  0  0  0  0  0  0  0
    9.3083    4.2086    8.4971 N   0  0  0  0  0  0  0  0  0  0  0  0
    8.3926    3.7289    7.5137 C   0  0  0  0  0  0  0  0  0  0  0  0
    7.9534    2.4069    7.5126 C   0  0  0  0  0  0  0  0  0  0  0  0
    7.0727    1.9677    6.5574 C   0  0  0  0  0  0  0  0  0  0  0  0
    6.5836    2.7991    5.5633 C   0  0  0  0  0  0  0  0  0  0  0  0
    7.0050    4.0970    5.5516 C   0  0  0  0  0  0  0  0  0  0  0  0
    7.8904    4.5429    6.5102 C   0  0  0  0  0  0  0  0  0  0  0  0
    9.7069    5.5819    8.4238 C   0  0  0  0  0  0  0  0  0  0  0  0
   10.6026    6.0633    9.4748 C   0  0  0  0  0  0  0  0  0  0  0  0
   10.5661    3.4069   11.4406 H   0  0  0  0  0  0  0  0  0  0  0  0
   11.8081    3.3972   10.1760 H   0  0  0  0  0  0  0  0  0  0  0  0
   10.1802    2.3970    8.9597 H   0  0  0  0  0  0  0  0  0  0  0  0
    8.8669    2.9125   10.0364 H   0  0  0  0  0  0  0  0  0  0  0  0
    8.3486    1.7694    8.3010 H   0  0  0  0  0  0  0  0  0  0  0  0
    6.7521    0.9383    6.5841 H   0  0  0  0  0  0  0  0  0  0  0  0
    5.8882    2.4496    4.8103 H   0  0  0  0  0  0  0  0  0  0  0  0
    6.6375    4.7615    4.7878 H   0  0  0  0  0  0  0  0  0  0  0  0
    8.2232    5.5799    6.4960 H   0  0  0  0  0  0  0  0  0  0  0  0
    8.7508    6.1842    8.3744 H   0  0  0  0  0  0  0  0  0  0  0  0
   10.1536    5.7251    7.3944 H   0  0  0  0  0  0  0  0  0  0  0  0
   10.1783    7.0201    9.9059 H   0  0  0  0  0  0  0  0  0  0  0  0
   11.5737    6.4080    9.0063 H   0  0  0  0  0  0  0  0  0  0  0  0
  1  3  2  0
  1  4  1  0
  2  4  1  0
  1  5  1  0
  2  6  1  0
  5  6  1  0
  6  7  2  3
  5  8  1  0
  4 10  1  0
 10 11  2  0
 11 12  1  0
 12 13  2  0
 13 14  1  0
 10 15  1  0
 14 15  2  0
  9 16  2  0
  9 17  1  0
 14 18  1  0
 17 18  2  0
 18 19  1  0
 16 20  1  0
 19 20  2  0
  2 21  1  0
  7 22  1  0
  8 23  1  0
  8 24  1  0
  8 25  1  0
 11 26  1  0
 12 27  1  0
 13 28  1  0
 15 29  1  0
 16 30  1  0
 17 31  1  0
 19 32  1  0
 20 33  1  0
 34 35  1  0
 35 36  1  0
 36 37  1  0
 37 38  1  0
 38 39  2  0
 39 40  1  0
 40 41  2  0
 41 42  1  0
 42 43  2  0
 37 44  1  0
 44 45  1  0
 45 34  1  0
 43 38  1  0
 35 46  1  0
 35 47  1  0
 36 48  1  0
 36 49  1  0
 39 50  1  0
 40 51  1  0
 41 52  1  0
 42 53  1  0
 43 54  1  0
 44 55  1  0
 44 56  1  0
 45 57  1  0
 45 58  1  0
  4 34  1  6
M  END
>  <attachment_point>  (291) 
21

>  <score>  (291) 
<NA>

$$$$
4djw
     RDKit          3D

 47 49  0  0  0  0  0  0  0  0999 V2000
   22.4950   11.8750   22.5810 C   0  0  0  0  0  0  0  0  0  0  0  0
   22.5380    9.4930   22.4640 N   0  0  0  0  0  0  0  0  0  0  0  0
   22.3600   13.0630   22.3480 O   0  0  0  0  0  0  0  0  0  0  0  0
   22.3390   10.6680   21.5610 C   0  0  2  0  0  0  0  0  0  0  0  0
   22.7860   11.3350   23.8120 N   0  0  0  0  0  0  0  0  0  0  0  0
   22.7800    9.9140   23.7010 C   0  0  0  0  0  0  0  0  0  0  0  0
   22.9970    9.1110   24.7490 N   0  0  0  0  0  0  0  0  0  0  0  0
   23.0220   12.1410   25.0180 C   0  0  0  0  0  0  0  0  0  0  0  0
   29.1260    9.8230   21.7090 N   0  0  0  0  0  0  0  0  0  0  0  0
   23.4880   10.6920   20.5300 C   0  0  0  0  0  0  0  0  0  0  0  0
   23.2110   10.7890   19.1730 C   0  0  0  0  0  0  0  0  0  0  0  0
   24.2350   10.8650   18.2430 C   0  0  0  0  0  0  0  0  0  0  0  0
   25.5500   10.8410   18.6560 C   0  0  0  0  0  0  0  0  0  0  0  0
   25.8710   10.7460   20.0070 C   0  0  0  0  0  0  0  0  0  0  0  0
   24.8260   10.6610   20.9430 C   0  0  0  0  0  0  0  0  0  0  0  0
   29.8540   10.9130   21.4510 C   0  0  0  0  0  0  0  0  0  0  0  0
   27.8830    9.7800   21.2080 C   0  0  0  0  0  0  0  0  0  0  0  0
   27.3000   10.8010   20.4650 C   0  0  0  0  0  0  0  0  0  0  0  0
   28.0930   11.9190   20.2200 C   0  0  0  0  0  0  0  0  0  0  0  0
   29.3850   11.9780   20.7130 C   0  0  0  0  0  0  0  0  0  0  0  0
    0.0000    0.0000    0.0000 H   0  0  0  0  0  0  0  0  0  0  0  0
    0.0000    0.0000    0.0000 H   0  0  0  0  0  0  0  0  0  0  0  0
    0.0000    0.0000    0.0000 H   0  0  0  0  0  0  0  0  0  0  0  0
    0.0000    0.0000    0.0000 H   0  0  0  0  0  0  0  0  0  0  0  0
    0.0000    0.0000    0.0000 H   0  0  0  0  0  0  0  0  0  0  0  0
    0.0000    0.0000    0.0000 H   0  0  0  0  0  0  0  0  0  0  0  0
    0.0000    0.0000    0.0000 H   0  0  0  0  0  0  0  0  0  0  0  0
    0.0000    0.0000    0.0000 H   0  0  0  0  0  0  0  0  0  0  0  0
    0.0000    0.0000    0.0000 H   0  0  0  0  0  0  0  0  0  0  0  0
    0.0000    0.0000    0.0000 H   0  0  0  0  0  0  0  0  0  0  0  0
    0.0000    0.0000    0.0000 H   0  0  0  0  0  0  0  0  0  0  0  0
    0.0000    0.0000    0.0000 H   0  0  0  0  0  0  0  0  0  0  0  0
    0.0000    0.0000    0.0000 H   0  0  0  0  0  0  0  0  0  0  0  0
   10.8726    5.1922   10.4939 C   0  0  0  0  0  0  0  0  0  0  0  0
   10.6392    3.7493   10.7599 C   0  0  0  0  0  0  0  0  0  0  0  0
   11.3349    5.4534    9.0766 C   0  0  0  0  0  0  0  0  0  0  0  0
    9.6473    6.0453   10.7264 C   0  0  0  0  0  0  0  0  0  0  0  0
    9.1801    5.8960   12.0501 O   0  0  0  0  0  0  0  0  0  0  0  0
   11.5633    3.3016   11.2259 H   0  0  0  0  0  0  0  0  0  0  0  0
    9.8164    3.5645   11.4551 H   0  0  0  0  0  0  0  0  0  0  0  0
   10.5080    3.2043    9.7829 H   0  0  0  0  0  0  0  0  0  0  0  0
   10.4388    5.5283    8.4194 H   0  0  0  0  0  0  0  0  0  0  0  0
   11.8087    6.4504    9.0618 H   0  0  0  0  0  0  0  0  0  0  0  0
   11.9881    4.6518    8.6867 H   0  0  0  0  0  0  0  0  0  0  0  0
    8.8182    5.8167   10.0629 H   0  0  0  0  0  0  0  0  0  0  0  0
    9.8885    7.1223   10.6236 H   0  0  0  0  0  0  0  0  0  0  0  0
    9.7098    6.4350   12.6752 H   0  0  0  0  0  0  0  0  0  0  0  0
  1  3  2  0
  1  4  1  0
  2  4  1  0
  1  5  1  0
  2  6  1  0
  5  6  1  0
  6  7  2  3
  5  8  1  0
  4 10  1  0
 10 11  2  0
 11 12  1  0
 12 13  2  0
 13 14  1  0
 10 15  1  0
 14 15  2  0
  9 16  2  0
  9 17  1  0
 14 18  1  0
 17 18  2  0
 18 19  1  0
 16 20  1  0
 19 20  2  0
  2 21  1  0
  7 22  1  0
  8 23  1  0
  8 24  1  0
  8 25  1  0
 11 26  1  0
 12 27  1  0
 13 28  1  0
 15 29  1  0
 16 30  1  0
 17 31  1  0
 19 32  1  0
 20 33  1  0
 34 35  1  0
 34 36  1  0
 34 37  1  0
 37 38  1  0
 35 39  1  0
 35 40  1  0
 35 41  1  0
 36 42  1  0
 36 43  1  0
 36 44  1  0
 37 45  1  0
 37 46  1  0
 38 47  1  0
  4 34  1  6
M  END
>  <attachment_point>  (292) 
21

>  <score>  (292) 
<NA>

$$$$
4djw
     RDKit          3D

 44 47  0  0  0  0  0  0  0  0999 V2000
   22.4950   11.8750   22.5810 C   0  0  0  0  0  0  0  0  0  0  0  0
   22.5380    9.4930   22.4640 N   0  0  0  0  0  0  0  0  0  0  0  0
   22.3600   13.0630   22.3480 O   0  0  0  0  0  0  0  0  0  0  0  0
   22.3390   10.6680   21.5610 C   0  0  2  0  0  0  0  0  0  0  0  0
   22.7860   11.3350   23.8120 N   0  0  0  0  0  0  0  0  0  0  0  0
   22.7800    9.9140   23.7010 C   0  0  0  0  0  0  0  0  0  0  0  0
   22.9970    9.1110   24.7490 N   0  0  0  0  0  0  0  0  0  0  0  0
   23.0220   12.1410   25.0180 C   0  0  0  0  0  0  0  0  0  0  0  0
   29.1260    9.8230   21.7090 N   0  0  0  0  0  0  0  0  0  0  0  0
   23.4880   10.6920   20.5300 C   0  0  0  0  0  0  0  0  0  0  0  0
   23.2110   10.7890   19.1730 C   0  0  0  0  0  0  0  0  0  0  0  0
   24.2350   10.8650   18.2430 C   0  0  0  0  0  0  0  0  0  0  0  0
   25.5500   10.8410   18.6560 C   0  0  0  0  0  0  0  0  0  0  0  0
   25.8710   10.7460   20.0070 C   0  0  0  0  0  0  0  0  0  0  0  0
   24.8260   10.6610   20.9430 C   0  0  0  0  0  0  0  0  0  0  0  0
   29.8540   10.9130   21.4510 C   0  0  0  0  0  0  0  0  0  0  0  0
   27.8830    9.7800   21.2080 C   0  0  0  0  0  0  0  0  0  0  0  0
   27.3000   10.8010   20.4650 C   0  0  0  0  0  0  0  0  0  0  0  0
   28.0930   11.9190   20.2200 C   0  0  0  0  0  0  0  0  0  0  0  0
   29.3850   11.9780   20.7130 C   0  0  0  0  0  0  0  0  0  0  0  0
    0.0000    0.0000    0.0000 H   0  0  0  0  0  0  0  0  0  0  0  0
    0.0000    0.0000    0.0000 H   0  0  0  0  0  0  0  0  0  0  0  0
    0.0000    0.0000    0.0000 H   0  0  0  0  0  0  0  0  0  0  0  0
    0.0000    0.0000    0.0000 H   0  0  0  0  0  0  0  0  0  0  0  0
    0.0000    0.0000    0.0000 H   0  0  0  0  0  0  0  0  0  0  0  0
    0.0000    0.0000    0.0000 H   0  0  0  0  0  0  0  0  0  0  0  0
    0.0000    0.0000    0.0000 H   0  0  0  0  0  0  0  0  0  0  0  0
    0.0000    0.0000    0.0000 H   0  0  0  0  0  0  0  0  0  0  0  0
    0.0000    0.0000    0.0000 H   0  0  0  0  0  0  0  0  0  0  0  0
    0.0000    0.0000    0.0000 H   0  0  0  0  0  0  0  0  0  0  0  0
    0.0000    0.0000    0.0000 H   0  0  0  0  0  0  0  0  0  0  0  0
    0.0000    0.0000    0.0000 H   0  0  0  0  0  0  0  0  0  0  0  0
    0.0000    0.0000    0.0000 H   0  0  0  0  0  0  0  0  0  0  0  0
   10.8756    5.1936   10.4968 C   0  0  0  0  0  0  0  0  0  0  0  0
   10.3863    6.0410    9.5131 C   0  0  0  0  0  0  0  0  0  0  0  0
    9.4473    5.5809    8.6125 C   0  0  0  0  0  0  0  0  0  0  0  0
    9.0103    4.2752    8.7100 C   0  0  0  0  0  0  0  0  0  0  0  0
    7.8288    3.6226    7.6116 Cl  0  0  0  0  0  0  0  0  0  0  0  0
    9.5079    3.4445    9.6957 C   0  0  0  0  0  0  0  0  0  0  0  0
   10.4441    3.8849   10.6025 C   0  0  0  0  0  0  0  0  0  0  0  0
   11.0739    2.8240   11.8546 Cl  0  0  0  0  0  0  0  0  0  0  0  0
   10.7511    7.0462    9.4719 H   0  0  0  0  0  0  0  0  0  0  0  0
    9.0635    6.2191    7.8534 H   0  0  0  0  0  0  0  0  0  0  0  0
    9.1895    2.4053    9.8085 H   0  0  0  0  0  0  0  0  0  0  0  0
  1  3  2  0
  1  4  1  0
  2  4  1  0
  1  5  1  0
  2  6  1  0
  5  6  1  0
  6  7  2  3
  5  8  1  0
  4 10  1  6
 10 11  2  0
 11 12  1  0
 12 13  2  0
 13 14  1  0
 10 15  1  0
 14 15  2  0
  9 16  2  0
  9 17  1  0
 14 18  1  0
 17 18  2  0
 18 19  1  0
 16 20  1  0
 19 20  2  0
  2 21  1  0
  7 22  1  0
  8 23  1  0
  8 24  1  0
  8 25  1  0
 11 26  1  0
 12 27  1  0
 13 28  1  0
 15 29  1  0
 16 30  1  0
 17 31  1  0
 19 32  1  0
 20 33  1  0
 34 35  2  0
 35 36  1  0
 36 37  2  0
 37 38  1  0
 37 39  1  0
 39 40  2  0
 40 41  1  0
 40 34  1  0
 35 42  1  0
 36 43  1  0
 39 44  1  0
  4 34  1  0
M  END
>  <attachment_point>  (293) 
21

>  <score>  (293) 
<NA>

$$$$
4djw
     RDKit          3D

 45 47  0  0  0  0  0  0  0  0999 V2000
   22.4950   11.8750   22.5810 C   0  0  0  0  0  0  0  0  0  0  0  0
   22.5380    9.4930   22.4640 N   0  0  0  0  0  0  0  0  0  0  0  0
   22.3600   13.0630   22.3480 O   0  0  0  0  0  0  0  0  0  0  0  0
   22.3390   10.6680   21.5610 C   0  0  2  0  0  0  0  0  0  0  0  0
   22.7860   11.3350   23.8120 N   0  0  0  0  0  0  0  0  0  0  0  0
   22.7800    9.9140   23.7010 C   0  0  0  0  0  0  0  0  0  0  0  0
   22.9970    9.1110   24.7490 N   0  0  0  0  0  0  0  0  0  0  0  0
   23.0220   12.1410   25.0180 C   0  0  0  0  0  0  0  0  0  0  0  0
   29.1260    9.8230   21.7090 N   0  0  0  0  0  0  0  0  0  0  0  0
   23.4880   10.6920   20.5300 C   0  0  0  0  0  0  0  0  0  0  0  0
   23.2110   10.7890   19.1730 C   0  0  0  0  0  0  0  0  0  0  0  0
   24.2350   10.8650   18.2430 C   0  0  0  0  0  0  0  0  0  0  0  0
   25.5500   10.8410   18.6560 C   0  0  0  0  0  0  0  0  0  0  0  0
   25.8710   10.7460   20.0070 C   0  0  0  0  0  0  0  0  0  0  0  0
   24.8260   10.6610   20.9430 C   0  0  0  0  0  0  0  0  0  0  0  0
   29.8540   10.9130   21.4510 C   0  0  0  0  0  0  0  0  0  0  0  0
   27.8830    9.7800   21.2080 C   0  0  0  0  0  0  0  0  0  0  0  0
   27.3000   10.8010   20.4650 C   0  0  0  0  0  0  0  0  0  0  0  0
   28.0930   11.9190   20.2200 C   0  0  0  0  0  0  0  0  0  0  0  0
   29.3850   11.9780   20.7130 C   0  0  0  0  0  0  0  0  0  0  0  0
    0.0000    0.0000    0.0000 H   0  0  0  0  0  0  0  0  0  0  0  0
    0.0000    0.0000    0.0000 H   0  0  0  0  0  0  0  0  0  0  0  0
    0.0000    0.0000    0.0000 H   0  0  0  0  0  0  0  0  0  0  0  0
    0.0000    0.0000    0.0000 H   0  0  0  0  0  0  0  0  0  0  0  0
    0.0000    0.0000    0.0000 H   0  0  0  0  0  0  0  0  0  0  0  0
    0.0000    0.0000    0.0000 H   0  0  0  0  0  0  0  0  0  0  0  0
    0.0000    0.0000    0.0000 H   0  0  0  0  0  0  0  0  0  0  0  0
    0.0000    0.0000    0.0000 H   0  0  0  0  0  0  0  0  0  0  0  0
    0.0000    0.0000    0.0000 H   0  0  0  0  0  0  0  0  0  0  0  0
    0.0000    0.0000    0.0000 H   0  0  0  0  0  0  0  0  0  0  0  0
    0.0000    0.0000    0.0000 H   0  0  0  0  0  0  0  0  0  0  0  0
    0.0000    0.0000    0.0000 H   0  0  0  0  0  0  0  0  0  0  0  0
    0.0000    0.0000    0.0000 H   0  0  0  0  0  0  0  0  0  0  0  0
   10.8806    5.1960   10.5016 C   0  0  0  0  0  0  0  0  0  0  0  0
   10.8223    6.0449    9.2508 C   0  0  0  0  0  0  0  0  0  0  0  0
   10.4770    7.4078    9.4901 N   0  0  0  0  0  0  0  0  0  0  0  0
   11.4294    8.2061   10.1797 C   0  0  0  0  0  0  0  0  0  0  0  0
    9.8667    5.1155   10.9874 H   0  0  0  0  0  0  0  0  0  0  0  0
   11.1680    4.1718   10.1976 H   0  0  0  0  0  0  0  0  0  0  0  0
   10.0895    5.5865    8.5464 H   0  0  0  0  0  0  0  0  0  0  0  0
   11.8304    5.9540    8.7792 H   0  0  0  0  0  0  0  0  0  0  0  0
   10.2532    7.8615    8.5769 H   0  0  0  0  0  0  0  0  0  0  0  0
   10.8418    8.8249   10.9309 H   0  0  0  0  0  0  0  0  0  0  0  0
   11.8961    8.9883    9.5138 H   0  0  0  0  0  0  0  0  0  0  0  0
   12.2470    7.6861   10.6758 H   0  0  0  0  0  0  0  0  0  0  0  0
  1  3  2  0
  1  4  1  0
  2  4  1  0
  1  5  1  0
  2  6  1  0
  5  6  1  0
  6  7  2  3
  5  8  1  0
  4 10  1  0
 10 11  2  0
 11 12  1  0
 12 13  2  0
 13 14  1  0
 10 15  1  0
 14 15  2  0
  9 16  2  0
  9 17  1  0
 14 18  1  0
 17 18  2  0
 18 19  1  0
 16 20  1  0
 19 20  2  0
  2 21  1  0
  7 22  1  0
  8 23  1  0
  8 24  1  0
  8 25  1  0
 11 26  1  0
 12 27  1  0
 13 28  1  0
 15 29  1  0
 16 30  1  0
 17 31  1  0
 19 32  1  0
 20 33  1  0
 34 35  1  0
 35 36  1  0
 36 37  1  0
 34 38  1  0
 34 39  1  0
 35 40  1  0
 35 41  1  0
 36 42  1  0
 37 43  1  0
 37 44  1  0
 37 45  1  0
  4 34  1  6
M  END
>  <attachment_point>  (294) 
21

>  <score>  (294) 
<NA>

$$$$
4djw
     RDKit          3D

 49 51  0  0  0  0  0  0  0  0999 V2000
   22.4950   11.8750   22.5810 C   0  0  0  0  0  0  0  0  0  0  0  0
   22.5380    9.4930   22.4640 N   0  0  0  0  0  0  0  0  0  0  0  0
   22.3600   13.0630   22.3480 O   0  0  0  0  0  0  0  0  0  0  0  0
   22.3390   10.6680   21.5610 C   0  0  2  0  0  0  0  0  0  0  0  0
   22.7860   11.3350   23.8120 N   0  0  0  0  0  0  0  0  0  0  0  0
   22.7800    9.9140   23.7010 C   0  0  0  0  0  0  0  0  0  0  0  0
   22.9970    9.1110   24.7490 N   0  0  0  0  0  0  0  0  0  0  0  0
   23.0220   12.1410   25.0180 C   0  0  0  0  0  0  0  0  0  0  0  0
   29.1260    9.8230   21.7090 N   0  0  0  0  0  0  0  0  0  0  0  0
   23.4880   10.6920   20.5300 C   0  0  0  0  0  0  0  0  0  0  0  0
   23.2110   10.7890   19.1730 C   0  0  0  0  0  0  0  0  0  0  0  0
   24.2350   10.8650   18.2430 C   0  0  0  0  0  0  0  0  0  0  0  0
   25.5500   10.8410   18.6560 C   0  0  0  0  0  0  0  0  0  0  0  0
   25.8710   10.7460   20.0070 C   0  0  0  0  0  0  0  0  0  0  0  0
   24.8260   10.6610   20.9430 C   0  0  0  0  0  0  0  0  0  0  0  0
   29.8540   10.9130   21.4510 C   0  0  0  0  0  0  0  0  0  0  0  0
   27.8830    9.7800   21.2080 C   0  0  0  0  0  0  0  0  0  0  0  0
   27.3000   10.8010   20.4650 C   0  0  0  0  0  0  0  0  0  0  0  0
   28.0930   11.9190   20.2200 C   0  0  0  0  0  0  0  0  0  0  0  0
   29.3850   11.9780   20.7130 C   0  0  0  0  0  0  0  0  0  0  0  0
    0.0000    0.0000    0.0000 H   0  0  0  0  0  0  0  0  0  0  0  0
    0.0000    0.0000    0.0000 H   0  0  0  0  0  0  0  0  0  0  0  0
    0.0000    0.0000    0.0000 H   0  0  0  0  0  0  0  0  0  0  0  0
    0.0000    0.0000    0.0000 H   0  0  0  0  0  0  0  0  0  0  0  0
    0.0000    0.0000    0.0000 H   0  0  0  0  0  0  0  0  0  0  0  0
    0.0000    0.0000    0.0000 H   0  0  0  0  0  0  0  0  0  0  0  0
    0.0000    0.0000    0.0000 H   0  0  0  0  0  0  0  0  0  0  0  0
    0.0000    0.0000    0.0000 H   0  0  0  0  0  0  0  0  0  0  0  0
    0.0000    0.0000    0.0000 H   0  0  0  0  0  0  0  0  0  0  0  0
    0.0000    0.0000    0.0000 H   0  0  0  0  0  0  0  0  0  0  0  0
    0.0000    0.0000    0.0000 H   0  0  0  0  0  0  0  0  0  0  0  0
    0.0000    0.0000    0.0000 H   0  0  0  0  0  0  0  0  0  0  0  0
    0.0000    0.0000    0.0000 H   0  0  0  0  0  0  0  0  0  0  0  0
   10.8753    5.1935   10.4965 C   0  0  0  0  0  0  0  0  0  0  0  0
   11.1425    4.4654    9.5145 O   0  0  0  0  0  0  0  0  0  0  0  0
    9.5463    5.5637   10.6696 O   0  0  0  0  0  0  0  0  0  0  0  0
    8.5666    5.1314    9.7754 C   0  0  0  0  0  0  0  0  0  0  0  0
    8.4443    3.6340    9.7029 C   0  0  0  0  0  0  0  0  0  0  0  0
    8.7598    5.6487    8.3685 C   0  0  0  0  0  0  0  0  0  0  0  0
    7.2291    5.6858   10.2822 C   0  0  0  0  0  0  0  0  0  0  0  0
    9.1596    3.2419    8.9371 H   0  0  0  0  0  0  0  0  0  0  0  0
    7.4241    3.4181    9.2836 H   0  0  0  0  0  0  0  0  0  0  0  0
    8.5653    3.1365   10.6879 H   0  0  0  0  0  0  0  0  0  0  0  0
    9.1610    4.8409    7.7001 H   0  0  0  0  0  0  0  0  0  0  0  0
    7.7616    5.9403    7.9346 H   0  0  0  0  0  0  0  0  0  0  0  0
    9.4410    6.5280    8.3662 H   0  0  0  0  0  0  0  0  0  0  0  0
    6.4268    4.9458   10.2235 H   0  0  0  0  0  0  0  0  0  0  0  0
    6.9152    6.5749    9.7073 H   0  0  0  0  0  0  0  0  0  0  0  0
    7.3054    5.9941   11.3507 H   0  0  0  0  0  0  0  0  0  0  0  0
  1  3  2  0
  1  4  1  0
  2  4  1  0
  1  5  1  0
  2  6  1  0
  5  6  1  0
  6  7  2  3
  5  8  1  0
  4 10  1  0
 10 11  2  0
 11 12  1  0
 12 13  2  0
 13 14  1  0
 10 15  1  0
 14 15  2  0
  9 16  2  0
  9 17  1  0
 14 18  1  0
 17 18  2  0
 18 19  1  0
 16 20  1  0
 19 20  2  0
  2 21  1  0
  7 22  1  0
  8 23  1  0
  8 24  1  0
  8 25  1  0
 11 26  1  0
 12 27  1  0
 13 28  1  0
 15 29  1  0
 16 30  1  0
 17 31  1  0
 19 32  1  0
 20 33  1  0
 34 35  2  0
 34 36  1  0
 36 37  1  0
 37 38  1  0
 37 39  1  0
 37 40  1  0
 38 41  1  0
 38 42  1  0
 38 43  1  0
 39 44  1  0
 39 45  1  0
 39 46  1  0
 40 47  1  0
 40 48  1  0
 40 49  1  0
  4 34  1  6
M  END
>  <attachment_point>  (295) 
21

>  <score>  (295) 
<NA>

$$$$
4djw
     RDKit          3D

 46 49  0  0  0  0  0  0  0  0999 V2000
   22.4950   11.8750   22.5810 C   0  0  0  0  0  0  0  0  0  0  0  0
   22.5380    9.4930   22.4640 N   0  0  0  0  0  0  0  0  0  0  0  0
   22.3600   13.0630   22.3480 O   0  0  0  0  0  0  0  0  0  0  0  0
   22.3390   10.6680   21.5610 C   0  0  2  0  0  0  0  0  0  0  0  0
   22.7860   11.3350   23.8120 N   0  0  0  0  0  0  0  0  0  0  0  0
   22.7800    9.9140   23.7010 C   0  0  0  0  0  0  0  0  0  0  0  0
   22.9970    9.1110   24.7490 N   0  0  0  0  0  0  0  0  0  0  0  0
   23.0220   12.1410   25.0180 C   0  0  0  0  0  0  0  0  0  0  0  0
   29.1260    9.8230   21.7090 N   0  0  0  0  0  0  0  0  0  0  0  0
   23.4880   10.6920   20.5300 C   0  0  0  0  0  0  0  0  0  0  0  0
   23.2110   10.7890   19.1730 C   0  0  0  0  0  0  0  0  0  0  0  0
   24.2350   10.8650   18.2430 C   0  0  0  0  0  0  0  0  0  0  0  0
   25.5500   10.8410   18.6560 C   0  0  0  0  0  0  0  0  0  0  0  0
   25.8710   10.7460   20.0070 C   0  0  0  0  0  0  0  0  0  0  0  0
   24.8260   10.6610   20.9430 C   0  0  0  0  0  0  0  0  0  0  0  0
   29.8540   10.9130   21.4510 C   0  0  0  0  0  0  0  0  0  0  0  0
   27.8830    9.7800   21.2080 C   0  0  0  0  0  0  0  0  0  0  0  0
   27.3000   10.8010   20.4650 C   0  0  0  0  0  0  0  0  0  0  0  0
   28.0930   11.9190   20.2200 C   0  0  0  0  0  0  0  0  0  0  0  0
   29.3850   11.9780   20.7130 C   0  0  0  0  0  0  0  0  0  0  0  0
    0.0000    0.0000    0.0000 H   0  0  0  0  0  0  0  0  0  0  0  0
    0.0000    0.0000    0.0000 H   0  0  0  0  0  0  0  0  0  0  0  0
    0.0000    0.0000    0.0000 H   0  0  0  0  0  0  0  0  0  0  0  0
    0.0000    0.0000    0.0000 H   0  0  0  0  0  0  0  0  0  0  0  0
    0.0000    0.0000    0.0000 H   0  0  0  0  0  0  0  0  0  0  0  0
    0.0000    0.0000    0.0000 H   0  0  0  0  0  0  0  0  0  0  0  0
    0.0000    0.0000    0.0000 H   0  0  0  0  0  0  0  0  0  0  0  0
    0.0000    0.0000    0.0000 H   0  0  0  0  0  0  0  0  0  0  0  0
    0.0000    0.0000    0.0000 H   0  0  0  0  0  0  0  0  0  0  0  0
    0.0000    0.0000    0.0000 H   0  0  0  0  0  0  0  0  0  0  0  0
    0.0000    0.0000    0.0000 H   0  0  0  0  0  0  0  0  0  0  0  0
    0.0000    0.0000    0.0000 H   0  0  0  0  0  0  0  0  0  0  0  0
    0.0000    0.0000    0.0000 H   0  0  0  0  0  0  0  0  0  0  0  0
   10.9086    5.2094   10.5287 C   0  0  1  0  0  0  0  0  0  0  0  0
   11.5220    4.5640    9.2778 C   0  0  0  0  0  0  0  0  0  0  0  0
   10.4167    3.5594    8.9600 C   0  0  0  0  0  0  0  0  0  0  0  0
   10.2542    2.9385   10.2733 N   0  0  0  0  0  0  0  0  0  0  0  0
   10.0194    4.1205   11.0973 C   0  0  0  0  0  0  0  0  0  0  0  0
   10.2487    6.0264   10.1351 H   0  0  0  0  0  0  0  0  0  0  0  0
   12.4459    4.0114    9.5273 H   0  0  0  0  0  0  0  0  0  0  0  0
   11.6425    5.2876    8.4613 H   0  0  0  0  0  0  0  0  0  0  0  0
   10.6788    2.8625    8.1771 H   0  0  0  0  0  0  0  0  0  0  0  0
    9.5042    4.1570    8.7886 H   0  0  0  0  0  0  0  0  0  0  0  0
    9.4016    2.3270   10.2711 H   0  0  0  0  0  0  0  0  0  0  0  0
    8.9364    4.3829   11.0047 H   0  0  0  0  0  0  0  0  0  0  0  0
   10.2285    3.9486   12.1567 H   0  0  0  0  0  0  0  0  0  0  0  0
  1  3  2  0
  1  4  1  0
  2  4  1  0
  1  5  1  0
  2  6  1  0
  5  6  1  0
  6  7  2  3
  5  8  1  0
  4 10  1  6
 10 11  2  0
 11 12  1  0
 12 13  2  0
 13 14  1  0
 10 15  1  0
 14 15  2  0
  9 16  2  0
  9 17  1  0
 14 18  1  0
 17 18  2  0
 18 19  1  0
 16 20  1  0
 19 20  2  0
  2 21  1  0
  7 22  1  0
  8 23  1  0
  8 24  1  0
  8 25  1  0
 11 26  1  0
 12 27  1  0
 13 28  1  0
 15 29  1  0
 16 30  1  0
 17 31  1  0
 19 32  1  0
 20 33  1  0
 34 35  1  0
 35 36  1  0
 36 37  1  0
 37 38  1  0
 38 34  1  0
 34 39  1  1
 35 40  1  0
 35 41  1  0
 36 42  1  0
 36 43  1  0
 37 44  1  0
 38 45  1  0
 38 46  1  0
  4 34  1  0
M  END
>  <attachment_point>  (296) 
21

>  <score>  (296) 
<NA>

$$$$
4djw
     RDKit          3D

 43 46  0  0  0  0  0  0  0  0999 V2000
   22.4950   11.8750   22.5810 C   0  0  0  0  0  0  0  0  0  0  0  0
   22.5380    9.4930   22.4640 N   0  0  0  0  0  0  0  0  0  0  0  0
   22.3600   13.0630   22.3480 O   0  0  0  0  0  0  0  0  0  0  0  0
   22.3390   10.6680   21.5610 C   0  0  2  0  0  0  0  0  0  0  0  0
   22.7860   11.3350   23.8120 N   0  0  0  0  0  0  0  0  0  0  0  0
   22.7800    9.9140   23.7010 C   0  0  0  0  0  0  0  0  0  0  0  0
   22.9970    9.1110   24.7490 N   0  0  0  0  0  0  0  0  0  0  0  0
   23.0220   12.1410   25.0180 C   0  0  0  0  0  0  0  0  0  0  0  0
   29.1260    9.8230   21.7090 N   0  0  0  0  0  0  0  0  0  0  0  0
   23.4880   10.6920   20.5300 C   0  0  0  0  0  0  0  0  0  0  0  0
   23.2110   10.7890   19.1730 C   0  0  0  0  0  0  0  0  0  0  0  0
   24.2350   10.8650   18.2430 C   0  0  0  0  0  0  0  0  0  0  0  0
   25.5500   10.8410   18.6560 C   0  0  0  0  0  0  0  0  0  0  0  0
   25.8710   10.7460   20.0070 C   0  0  0  0  0  0  0  0  0  0  0  0
   24.8260   10.6610   20.9430 C   0  0  0  0  0  0  0  0  0  0  0  0
   29.8540   10.9130   21.4510 C   0  0  0  0  0  0  0  0  0  0  0  0
   27.8830    9.7800   21.2080 C   0  0  0  0  0  0  0  0  0  0  0  0
   27.3000   10.8010   20.4650 C   0  0  0  0  0  0  0  0  0  0  0  0
   28.0930   11.9190   20.2200 C   0  0  0  0  0  0  0  0  0  0  0  0
   29.3850   11.9780   20.7130 C   0  0  0  0  0  0  0  0  0  0  0  0
    0.0000    0.0000    0.0000 H   0  0  0  0  0  0  0  0  0  0  0  0
    0.0000    0.0000    0.0000 H   0  0  0  0  0  0  0  0  0  0  0  0
    0.0000    0.0000    0.0000 H   0  0  0  0  0  0  0  0  0  0  0  0
    0.0000    0.0000    0.0000 H   0  0  0  0  0  0  0  0  0  0  0  0
    0.0000    0.0000    0.0000 H   0  0  0  0  0  0  0  0  0  0  0  0
    0.0000    0.0000    0.0000 H   0  0  0  0  0  0  0  0  0  0  0  0
    0.0000    0.0000    0.0000 H   0  0  0  0  0  0  0  0  0  0  0  0
    0.0000    0.0000    0.0000 H   0  0  0  0  0  0  0  0  0  0  0  0
    0.0000    0.0000    0.0000 H   0  0  0  0  0  0  0  0  0  0  0  0
    0.0000    0.0000    0.0000 H   0  0  0  0  0  0  0  0  0  0  0  0
    0.0000    0.0000    0.0000 H   0  0  0  0  0  0  0  0  0  0  0  0
    0.0000    0.0000    0.0000 H   0  0  0  0  0  0  0  0  0  0  0  0
    0.0000    0.0000    0.0000 H   0  0  0  0  0  0  0  0  0  0  0  0
   10.8706    5.1913   10.4920 C   0  0  0  0  0  0  0  0  0  0  0  0
   11.2257    5.0248    9.3089 O   0  0  0  0  0  0  0  0  0  0  0  0
    9.4983    4.9255   10.9371 C   0  0  0  0  0  0  0  0  0  0  0  0
    8.9548    5.0567   12.1868 C   0  0  0  0  0  0  0  0  0  0  0  0
    7.6701    4.7485   12.3338 C   0  0  0  0  0  0  0  0  0  0  0  0
    6.9816    4.3224   11.2275 C   0  0  0  0  0  0  0  0  0  0  0  0
    8.1812    4.3726   10.0117 S   0  0  0  0  0  0  0  0  0  0  0  0
    9.6002    5.4112   13.0199 H   0  0  0  0  0  0  0  0  0  0  0  0
    7.1329    4.8197   13.3034 H   0  0  0  0  0  0  0  0  0  0  0  0
    5.9185    4.0269   11.1650 H   0  0  0  0  0  0  0  0  0  0  0  0
  1  3  2  0
  1  4  1  0
  2  4  1  0
  1  5  1  0
  2  6  1  0
  5  6  1  0
  6  7  2  3
  5  8  1  0
  4 10  1  0
 10 11  2  0
 11 12  1  0
 12 13  2  0
 13 14  1  0
 10 15  1  0
 14 15  2  0
  9 16  2  0
  9 17  1  0
 14 18  1  0
 17 18  2  0
 18 19  1  0
 16 20  1  0
 19 20  2  0
  2 21  1  0
  7 22  1  0
  8 23  1  0
  8 24  1  0
  8 25  1  0
 11 26  1  0
 12 27  1  0
 13 28  1  0
 15 29  1  0
 16 30  1  0
 17 31  1  0
 19 32  1  0
 20 33  1  0
 34 35  2  0
 34 36  1  0
 36 37  2  0
 37 38  1  0
 38 39  2  0
 39 40  1  0
 40 36  1  0
 37 41  1  0
 38 42  1  0
 39 43  1  0
  4 34  1  6
M  END
>  <attachment_point>  (297) 
21

>  <score>  (297) 
<NA>

$$$$
4djw
     RDKit          3D

 54 57  0  0  0  0  0  0  0  0999 V2000
   22.4950   11.8750   22.5810 C   0  0  0  0  0  0  0  0  0  0  0  0
   22.5380    9.4930   22.4640 N   0  0  0  0  0  0  0  0  0  0  0  0
   22.3600   13.0630   22.3480 O   0  0  0  0  0  0  0  0  0  0  0  0
   22.3390   10.6680   21.5610 C   0  0  2  0  0  0  0  0  0  0  0  0
   22.7860   11.3350   23.8120 N   0  0  0  0  0  0  0  0  0  0  0  0
   22.7800    9.9140   23.7010 C   0  0  0  0  0  0  0  0  0  0  0  0
   22.9970    9.1110   24.7490 N   0  0  0  0  0  0  0  0  0  0  0  0
   23.0220   12.1410   25.0180 C   0  0  0  0  0  0  0  0  0  0  0  0
   29.1260    9.8230   21.7090 N   0  0  0  0  0  0  0  0  0  0  0  0
   23.4880   10.6920   20.5300 C   0  0  0  0  0  0  0  0  0  0  0  0
   23.2110   10.7890   19.1730 C   0  0  0  0  0  0  0  0  0  0  0  0
   24.2350   10.8650   18.2430 C   0  0  0  0  0  0  0  0  0  0  0  0
   25.5500   10.8410   18.6560 C   0  0  0  0  0  0  0  0  0  0  0  0
   25.8710   10.7460   20.0070 C   0  0  0  0  0  0  0  0  0  0  0  0
   24.8260   10.6610   20.9430 C   0  0  0  0  0  0  0  0  0  0  0  0
   29.8540   10.9130   21.4510 C   0  0  0  0  0  0  0  0  0  0  0  0
   27.8830    9.7800   21.2080 C   0  0  0  0  0  0  0  0  0  0  0  0
   27.3000   10.8010   20.4650 C   0  0  0  0  0  0  0  0  0  0  0  0
   28.0930   11.9190   20.2200 C   0  0  0  0  0  0  0  0  0  0  0  0
   29.3850   11.9780   20.7130 C   0  0  0  0  0  0  0  0  0  0  0  0
    0.0000    0.0000    0.0000 H   0  0  0  0  0  0  0  0  0  0  0  0
    0.0000    0.0000    0.0000 H   0  0  0  0  0  0  0  0  0  0  0  0
    0.0000    0.0000    0.0000 H   0  0  0  0  0  0  0  0  0  0  0  0
    0.0000    0.0000    0.0000 H   0  0  0  0  0  0  0  0  0  0  0  0
    0.0000    0.0000    0.0000 H   0  0  0  0  0  0  0  0  0  0  0  0
    0.0000    0.0000    0.0000 H   0  0  0  0  0  0  0  0  0  0  0  0
    0.0000    0.0000    0.0000 H   0  0  0  0  0  0  0  0  0  0  0  0
    0.0000    0.0000    0.0000 H   0  0  0  0  0  0  0  0  0  0  0  0
    0.0000    0.0000    0.0000 H   0  0  0  0  0  0  0  0  0  0  0  0
    0.0000    0.0000    0.0000 H   0  0  0  0  0  0  0  0  0  0  0  0
    0.0000    0.0000    0.0000 H   0  0  0  0  0  0  0  0  0  0  0  0
    0.0000    0.0000    0.0000 H   0  0  0  0  0  0  0  0  0  0  0  0
    0.0000    0.0000    0.0000 H   0  0  0  0  0  0  0  0  0  0  0  0
   10.9177    5.2138   10.5375 N   0  0  0  0  0  0  0  0  0  0  0  0
   10.3518    6.1869    9.6858 C   0  0  0  0  0  0  0  0  0  0  0  0
    9.6524    5.6526    8.4717 C   0  0  0  0  0  0  0  0  0  0  0  0
   10.7196    5.3401    7.4365 C   0  0  0  0  0  0  0  0  0  0  0  0
   11.2090    4.0066    7.5688 N   0  0  0  0  0  0  0  0  0  0  0  0
   12.1782    3.7781    6.5036 C   0  0  0  0  0  0  0  0  0  0  0  0
   11.8703    3.7370    8.8125 C   0  0  0  0  0  0  0  0  0  0  0  0
   10.9958    3.8872   10.0195 C   0  0  0  0  0  0  0  0  0  0  0  0
   11.1896    6.8425    9.3056 H   0  0  0  0  0  0  0  0  0  0  0  0
    9.6723    6.9007   10.2196 H   0  0  0  0  0  0  0  0  0  0  0  0
    9.0484    4.7547    8.6514 H   0  0  0  0  0  0  0  0  0  0  0  0
    8.9376    6.4279    8.0796 H   0  0  0  0  0  0  0  0  0  0  0  0
   10.2443    5.4421    6.4480 H   0  0  0  0  0  0  0  0  0  0  0  0
   11.5115    6.1191    7.5038 H   0  0  0  0  0  0  0  0  0  0  0  0
   13.1656    3.4589    6.8954 H   0  0  0  0  0  0  0  0  0  0  0  0
   12.3803    4.7223    5.9264 H   0  0  0  0  0  0  0  0  0  0  0  0
   11.8422    2.9650    5.8255 H   0  0  0  0  0  0  0  0  0  0  0  0
   12.8018    4.2949    8.9691 H   0  0  0  0  0  0  0  0  0  0  0  0
   12.1752    2.6490    8.7766 H   0  0  0  0  0  0  0  0  0  0  0  0
   10.0048    3.4057    9.8454 H   0  0  0  0  0  0  0  0  0  0  0  0
   11.4694    3.2556   10.8305 H   0  0  0  0  0  0  0  0  0  0  0  0
  1  3  2  0
  1  4  1  0
  2  4  1  0
  1  5  1  0
  2  6  1  0
  5  6  1  0
  6  7  2  3
  5  8  1  0
  4 10  1  0
 10 11  2  0
 11 12  1  0
 12 13  2  0
 13 14  1  0
 10 15  1  0
 14 15  2  0
  9 16  2  0
  9 17  1  0
 14 18  1  0
 17 18  2  0
 18 19  1  0
 16 20  1  0
 19 20  2  0
  2 21  1  0
  7 22  1  0
  8 23  1  0
  8 24  1  0
  8 25  1  0
 11 26  1  0
 12 27  1  0
 13 28  1  0
 15 29  1  0
 16 30  1  0
 17 31  1  0
 19 32  1  0
 20 33  1  0
 34 35  1  0
 35 36  1  0
 36 37  1  0
 37 38  1  0
 38 39  1  0
 38 40  1  0
 40 41  1  0
 41 34  1  0
 35 42  1  0
 35 43  1  0
 36 44  1  0
 36 45  1  0
 37 46  1  0
 37 47  1  0
 39 48  1  0
 39 49  1  0
 39 50  1  0
 40 51  1  0
 40 52  1  0
 41 53  1  0
 41 54  1  0
  4 34  1  6
M  END
>  <attachment_point>  (298) 
21

>  <score>  (298) 
<NA>

$$$$
4djw
     RDKit          3D

 51 54  0  0  0  0  0  0  0  0999 V2000
   22.4950   11.8750   22.5810 C   0  0  0  0  0  0  0  0  0  0  0  0
   22.5380    9.4930   22.4640 N   0  0  0  0  0  0  0  0  0  0  0  0
   22.3600   13.0630   22.3480 O   0  0  0  0  0  0  0  0  0  0  0  0
   22.3390   10.6680   21.5610 C   0  0  2  0  0  0  0  0  0  0  0  0
   22.7860   11.3350   23.8120 N   0  0  0  0  0  0  0  0  0  0  0  0
   22.7800    9.9140   23.7010 C   0  0  0  0  0  0  0  0  0  0  0  0
   22.9970    9.1110   24.7490 N   0  0  0  0  0  0  0  0  0  0  0  0
   23.0220   12.1410   25.0180 C   0  0  0  0  0  0  0  0  0  0  0  0
   29.1260    9.8230   21.7090 N   0  0  0  0  0  0  0  0  0  0  0  0
   23.4880   10.6920   20.5300 C   0  0  0  0  0  0  0  0  0  0  0  0
   23.2110   10.7890   19.1730 C   0  0  0  0  0  0  0  0  0  0  0  0
   24.2350   10.8650   18.2430 C   0  0  0  0  0  0  0  0  0  0  0  0
   25.5500   10.8410   18.6560 C   0  0  0  0  0  0  0  0  0  0  0  0
   25.8710   10.7460   20.0070 C   0  0  0  0  0  0  0  0  0  0  0  0
   24.8260   10.6610   20.9430 C   0  0  0  0  0  0  0  0  0  0  0  0
   29.8540   10.9130   21.4510 C   0  0  0  0  0  0  0  0  0  0  0  0
   27.8830    9.7800   21.2080 C   0  0  0  0  0  0  0  0  0  0  0  0
   27.3000   10.8010   20.4650 C   0  0  0  0  0  0  0  0  0  0  0  0
   28.0930   11.9190   20.2200 C   0  0  0  0  0  0  0  0  0  0  0  0
   29.3850   11.9780   20.7130 C   0  0  0  0  0  0  0  0  0  0  0  0
    0.0000    0.0000    0.0000 H   0  0  0  0  0  0  0  0  0  0  0  0
    0.0000    0.0000    0.0000 H   0  0  0  0  0  0  0  0  0  0  0  0
    0.0000    0.0000    0.0000 H   0  0  0  0  0  0  0  0  0  0  0  0
    0.0000    0.0000    0.0000 H   0  0  0  0  0  0  0  0  0  0  0  0
    0.0000    0.0000    0.0000 H   0  0  0  0  0  0  0  0  0  0  0  0
    0.0000    0.0000    0.0000 H   0  0  0  0  0  0  0  0  0  0  0  0
    0.0000    0.0000    0.0000 H   0  0  0  0  0  0  0  0  0  0  0  0
    0.0000    0.0000    0.0000 H   0  0  0  0  0  0  0  0  0  0  0  0
    0.0000    0.0000    0.0000 H   0  0  0  0  0  0  0  0  0  0  0  0
    0.0000    0.0000    0.0000 H   0  0  0  0  0  0  0  0  0  0  0  0
    0.0000    0.0000    0.0000 H   0  0  0  0  0  0  0  0  0  0  0  0
    0.0000    0.0000    0.0000 H   0  0  0  0  0  0  0  0  0  0  0  0
    0.0000    0.0000    0.0000 H   0  0  0  0  0  0  0  0  0  0  0  0
   10.8707    5.1913   10.4921 C   0  0  0  0  0  0  0  0  0  0  0  0
    9.9425    4.2254   10.7990 C   0  0  0  0  0  0  0  0  0  0  0  0
    9.0247    3.8048    9.8724 C   0  0  0  0  0  0  0  0  0  0  0  0
    8.9935    4.3468    8.5609 C   0  0  0  0  0  0  0  0  0  0  0  0
    8.0315    3.8669    7.6795 N   0  0  0  0  0  0  0  0  0  0  0  0
    7.8085    4.2416    6.3566 C   0  0  0  0  0  0  0  0  0  0  0  0
    6.7265    3.6389    5.5107 C   0  0  0  0  0  0  0  0  0  0  0  0
    8.5143    5.1071    5.8222 O   0  0  0  0  0  0  0  0  0  0  0  0
    9.9129    5.3068    8.2496 C   0  0  0  0  0  0  0  0  0  0  0  0
   10.8350    5.7083    9.2289 C   0  0  0  0  0  0  0  0  0  0  0  0
    9.9700    3.8180   11.7932 H   0  0  0  0  0  0  0  0  0  0  0  0
    8.3009    3.0357   10.1480 H   0  0  0  0  0  0  0  0  0  0  0  0
    7.3577    3.1070    8.0372 H   0  0  0  0  0  0  0  0  0  0  0  0
    7.1531    2.9652    4.7454 H   0  0  0  0  0  0  0  0  0  0  0  0
    5.9768    3.1318    6.1157 H   0  0  0  0  0  0  0  0  0  0  0  0
    6.2340    4.4824    4.9845 H   0  0  0  0  0  0  0  0  0  0  0  0
    9.9367    5.7505    7.2777 H   0  0  0  0  0  0  0  0  0  0  0  0
   11.5337    6.4645    8.9311 H   0  0  0  0  0  0  0  0  0  0  0  0
  1  3  2  0
  1  4  1  0
  2  4  1  0
  1  5  1  0
  2  6  1  0
  5  6  1  0
  6  7  2  3
  5  8  1  0
  4 10  1  6
 10 11  2  0
 11 12  1  0
 12 13  2  0
 13 14  1  0
 10 15  1  0
 14 15  2  0
  9 16  2  0
  9 17  1  0
 14 18  1  0
 17 18  2  0
 18 19  1  0
 16 20  1  0
 19 20  2  0
  2 21  1  0
  7 22  1  0
  8 23  1  0
  8 24  1  0
  8 25  1  0
 11 26  1  0
 12 27  1  0
 13 28  1  0
 15 29  1  0
 16 30  1  0
 17 31  1  0
 19 32  1  0
 20 33  1  0
 34 35  2  0
 35 36  1  0
 36 37  2  0
 37 38  1  0
 38 39  1  0
 39 40  1  0
 39 41  2  0
 37 42  1  0
 42 43  2  0
 43 34  1  0
 35 44  1  0
 36 45  1  0
 38 46  1  0
 40 47  1  0
 40 48  1  0
 40 49  1  0
 42 50  1  0
 43 51  1  0
  4 34  1  0
M  END
>  <attachment_point>  (299) 
21

>  <score>  (299) 
<NA>

$$$$
4djw
     RDKit          3D

 51 54  0  0  0  0  0  0  0  0999 V2000
   22.4950   11.8750   22.5810 C   0  0  0  0  0  0  0  0  0  0  0  0
   22.5380    9.4930   22.4640 N   0  0  0  0  0  0  0  0  0  0  0  0
   22.3600   13.0630   22.3480 O   0  0  0  0  0  0  0  0  0  0  0  0
   22.3390   10.6680   21.5610 C   0  0  2  0  0  0  0  0  0  0  0  0
   22.7860   11.3350   23.8120 N   0  0  0  0  0  0  0  0  0  0  0  0
   22.7800    9.9140   23.7010 C   0  0  0  0  0  0  0  0  0  0  0  0
   22.9970    9.1110   24.7490 N   0  0  0  0  0  0  0  0  0  0  0  0
   23.0220   12.1410   25.0180 C   0  0  0  0  0  0  0  0  0  0  0  0
   29.1260    9.8230   21.7090 N   0  0  0  0  0  0  0  0  0  0  0  0
   23.4880   10.6920   20.5300 C   0  0  0  0  0  0  0  0  0  0  0  0
   23.2110   10.7890   19.1730 C   0  0  0  0  0  0  0  0  0  0  0  0
   24.2350   10.8650   18.2430 C   0  0  0  0  0  0  0  0  0  0  0  0
   25.5500   10.8410   18.6560 C   0  0  0  0  0  0  0  0  0  0  0  0
   25.8710   10.7460   20.0070 C   0  0  0  0  0  0  0  0  0  0  0  0
   24.8260   10.6610   20.9430 C   0  0  0  0  0  0  0  0  0  0  0  0
   29.8540   10.9130   21.4510 C   0  0  0  0  0  0  0  0  0  0  0  0
   27.8830    9.7800   21.2080 C   0  0  0  0  0  0  0  0  0  0  0  0
   27.3000   10.8010   20.4650 C   0  0  0  0  0  0  0  0  0  0  0  0
   28.0930   11.9190   20.2200 C   0  0  0  0  0  0  0  0  0  0  0  0
   29.3850   11.9780   20.7130 C   0  0  0  0  0  0  0  0  0  0  0  0
    0.0000    0.0000    0.0000 H   0  0  0  0  0  0  0  0  0  0  0  0
    0.0000    0.0000    0.0000 H   0  0  0  0  0  0  0  0  0  0  0  0
    0.0000    0.0000    0.0000 H   0  0  0  0  0  0  0  0  0  0  0  0
    0.0000    0.0000    0.0000 H   0  0  0  0  0  0  0  0  0  0  0  0
    0.0000    0.0000    0.0000 H   0  0  0  0  0  0  0  0  0  0  0  0
    0.0000    0.0000    0.0000 H   0  0  0  0  0  0  0  0  0  0  0  0
    0.0000    0.0000    0.0000 H   0  0  0  0  0  0  0  0  0  0  0  0
    0.0000    0.0000    0.0000 H   0  0  0  0  0  0  0  0  0  0  0  0
    0.0000    0.0000    0.0000 H   0  0  0  0  0  0  0  0  0  0  0  0
    0.0000    0.0000    0.0000 H   0  0  0  0  0  0  0  0  0  0  0  0
    0.0000    0.0000    0.0000 H   0  0  0  0  0  0  0  0  0  0  0  0
    0.0000    0.0000    0.0000 H   0  0  0  0  0  0  0  0  0  0  0  0
    0.0000    0.0000    0.0000 H   0  0  0  0  0  0  0  0  0  0  0  0
   10.8570    5.1848   10.4789 C   0  0  0  0  0  0  0  0  0  0  0  0
   10.6270    6.3148    9.5206 C   0  0  0  0  0  0  0  0  0  0  0  0
    9.4935    7.0904    9.6028 C   0  0  0  0  0  0  0  0  0  0  0  0
    9.2468    8.1500    8.7300 C   0  0  0  0  0  0  0  0  0  0  0  0
   10.1912    8.4018    7.7656 C   0  0  0  0  0  0  0  0  0  0  0  0
   11.3253    7.6330    7.6759 C   0  0  0  0  0  0  0  0  0  0  0  0
   11.5709    6.5701    8.5521 C   0  0  0  0  0  0  0  0  0  0  0  0
   12.7244    5.7938    8.4535 O   0  0  0  0  0  0  0  0  0  0  0  0
   13.6530    6.1284    7.4139 C   0  0  0  0  0  0  0  0  0  0  0  0
    9.9342    4.9743   11.0574 H   0  0  0  0  0  0  0  0  0  0  0  0
   11.2580    4.2922    9.9555 H   0  0  0  0  0  0  0  0  0  0  0  0
    8.7460    6.9088   10.3531 H   0  0  0  0  0  0  0  0  0  0  0  0
    8.3323    8.7449    8.8230 H   0  0  0  0  0  0  0  0  0  0  0  0
   10.0211    9.2115    7.0830 H   0  0  0  0  0  0  0  0  0  0  0  0
   12.0794    7.8151    6.9189 H   0  0  0  0  0  0  0  0  0  0  0  0
   13.9205    7.2057    7.5359 H   0  0  0  0  0  0  0  0  0  0  0  0
   13.1586    6.0407    6.4259 H   0  0  0  0  0  0  0  0  0  0  0  0
   14.5901    5.5456    7.5036 H   0  0  0  0  0  0  0  0  0  0  0  0
  1  3  2  0
  1  4  1  0
  2  4  1  0
  1  5  1  0
  2  6  1  0
  5  6  1  0
  6  7  2  3
  5  8  1  0
  4 10  1  0
 10 11  2  0
 11 12  1  0
 12 13  2  0
 13 14  1  0
 10 15  1  0
 14 15  2  0
  9 16  2  0
  9 17  1  0
 14 18  1  0
 17 18  2  0
 18 19  1  0
 16 20  1  0
 19 20  2  0
  2 21  1  0
  7 22  1  0
  8 23  1  0
  8 24  1  0
  8 25  1  0
 11 26  1  0
 12 27  1  0
 13 28  1  0
 15 29  1  0
 16 30  1  0
 17 31  1  0
 19 32  1  0
 20 33  1  0
 34 35  1  0
 35 36  2  0
 36 37  1  0
 37 38  2  0
 38 39  1  0
 39 40  2  0
 40 41  1  0
 41 42  1  0
 40 35  1  0
 34 43  1  0
 34 44  1  0
 36 45  1  0
 37 46  1  0
 38 47  1  0
 39 48  1  0
 42 49  1  0
 42 50  1  0
 42 51  1  0
  4 34  1  6
M  END
>  <attachment_point>  (300) 
21

>  <score>  (300) 
<NA>

$$$$
4djw
     RDKit          3D

 58 60  0  0  0  0  0  0  0  0999 V2000
   22.4950   11.8750   22.5810 C   0  0  0  0  0  0  0  0  0  0  0  0
   22.5380    9.4930   22.4640 N   0  0  0  0  0  0  0  0  0  0  0  0
   22.3600   13.0630   22.3480 O   0  0  0  0  0  0  0  0  0  0  0  0
   22.3390   10.6680   21.5610 C   0  0  2  0  0  0  0  0  0  0  0  0
   22.7860   11.3350   23.8120 N   0  0  0  0  0  0  0  0  0  0  0  0
   22.7800    9.9140   23.7010 C   0  0  0  0  0  0  0  0  0  0  0  0
   22.9970    9.1110   24.7490 N   0  0  0  0  0  0  0  0  0  0  0  0
   23.0220   12.1410   25.0180 C   0  0  0  0  0  0  0  0  0  0  0  0
   29.1260    9.8230   21.7090 N   0  0  0  0  0  0  0  0  0  0  0  0
   23.4880   10.6920   20.5300 C   0  0  0  0  0  0  0  0  0  0  0  0
   23.2110   10.7890   19.1730 C   0  0  0  0  0  0  0  0  0  0  0  0
   24.2350   10.8650   18.2430 C   0  0  0  0  0  0  0  0  0  0  0  0
   25.5500   10.8410   18.6560 C   0  0  0  0  0  0  0  0  0  0  0  0
   25.8710   10.7460   20.0070 C   0  0  0  0  0  0  0  0  0  0  0  0
   24.8260   10.6610   20.9430 C   0  0  0  0  0  0  0  0  0  0  0  0
   29.8540   10.9130   21.4510 C   0  0  0  0  0  0  0  0  0  0  0  0
   27.8830    9.7800   21.2080 C   0  0  0  0  0  0  0  0  0  0  0  0
   27.3000   10.8010   20.4650 C   0  0  0  0  0  0  0  0  0  0  0  0
   28.0930   11.9190   20.2200 C   0  0  0  0  0  0  0  0  0  0  0  0
   29.3850   11.9780   20.7130 C   0  0  0  0  0  0  0  0  0  0  0  0
    0.0000    0.0000    0.0000 H   0  0  0  0  0  0  0  0  0  0  0  0
    0.0000    0.0000    0.0000 H   0  0  0  0  0  0  0  0  0  0  0  0
    0.0000    0.0000    0.0000 H   0  0  0  0  0  0  0  0  0  0  0  0
    0.0000    0.0000    0.0000 H   0  0  0  0  0  0  0  0  0  0  0  0
    0.0000    0.0000    0.0000 H   0  0  0  0  0  0  0  0  0  0  0  0
    0.0000    0.0000    0.0000 H   0  0  0  0  0  0  0  0  0  0  0  0
    0.0000    0.0000    0.0000 H   0  0  0  0  0  0  0  0  0  0  0  0
    0.0000    0.0000    0.0000 H   0  0  0  0  0  0  0  0  0  0  0  0
    0.0000    0.0000    0.0000 H   0  0  0  0  0  0  0  0  0  0  0  0
    0.0000    0.0000    0.0000 H   0  0  0  0  0  0  0  0  0  0  0  0
    0.0000    0.0000    0.0000 H   0  0  0  0  0  0  0  0  0  0  0  0
    0.0000    0.0000    0.0000 H   0  0  0  0  0  0  0  0  0  0  0  0
    0.0000    0.0000    0.0000 H   0  0  0  0  0  0  0  0  0  0  0  0
   10.8838    5.1976   10.5047 C   0  0  0  0  0  0  0  0  0  0  0  0
   11.4363    5.3453    9.0908 C   0  0  0  0  0  0  0  0  0  0  0  0
   12.7246    4.5115    8.9541 C   0  0  0  0  0  0  0  0  0  0  0  0
   13.1755    4.7323    7.5314 C   0  0  0  0  0  0  0  0  0  0  0  0
   14.4435    4.0083    7.1775 C   0  0  0  0  0  0  0  0  0  0  0  0
   14.2194    2.5350    7.3589 C   0  0  0  0  0  0  0  0  0  0  0  0
   15.4537    1.7248    7.0094 C   0  0  0  0  0  0  0  0  0  0  0  0
   15.1483    0.2779    7.2164 C   0  0  0  0  0  0  0  0  0  0  0  0
    9.9252    5.7559   10.5175 H   0  0  0  0  0  0  0  0  0  0  0  0
   10.7026    4.1284   10.7344 H   0  0  0  0  0  0  0  0  0  0  0  0
   11.6855    6.4052    8.8841 H   0  0  0  0  0  0  0  0  0  0  0  0
   10.6542    4.9415    8.4155 H   0  0  0  0  0  0  0  0  0  0  0  0
   12.4399    3.4431    9.1168 H   0  0  0  0  0  0  0  0  0  0  0  0
   13.4734    4.8826    9.6550 H   0  0  0  0  0  0  0  0  0  0  0  0
   12.3140    4.3909    6.8853 H   0  0  0  0  0  0  0  0  0  0  0  0
   13.2588    5.8279    7.3770 H   0  0  0  0  0  0  0  0  0  0  0  0
   14.7388    4.2620    6.1313 H   0  0  0  0  0  0  0  0  0  0  0  0
   15.2516    4.4002    7.8350 H   0  0  0  0  0  0  0  0  0  0  0  0
   13.9695    2.3509    8.4310 H   0  0  0  0  0  0  0  0  0  0  0  0
   13.3466    2.2403    6.7474 H   0  0  0  0  0  0  0  0  0  0  0  0
   15.6008    1.8712    5.9010 H   0  0  0  0  0  0  0  0  0  0  0  0
   16.3524    2.0943    7.4997 H   0  0  0  0  0  0  0  0  0  0  0  0
   14.0679    0.1264    6.9260 H   0  0  0  0  0  0  0  0  0  0  0  0
   15.7311   -0.3882    6.5391 H   0  0  0  0  0  0  0  0  0  0  0  0
   15.3183   -0.0734    8.2575 H   0  0  0  0  0  0  0  0  0  0  0  0
  1  3  2  0
  1  4  1  0
  2  4  1  0
  1  5  1  0
  2  6  1  0
  5  6  1  0
  6  7  2  3
  5  8  1  0
  4 10  1  0
 10 11  2  0
 11 12  1  0
 12 13  2  0
 13 14  1  0
 10 15  1  0
 14 15  2  0
  9 16  2  0
  9 17  1  0
 14 18  1  0
 17 18  2  0
 18 19  1  0
 16 20  1  0
 19 20  2  0
  2 21  1  0
  7 22  1  0
  8 23  1  0
  8 24  1  0
  8 25  1  0
 11 26  1  0
 12 27  1  0
 13 28  1  0
 15 29  1  0
 16 30  1  0
 17 31  1  0
 19 32  1  0
 20 33  1  0
 34 35  1  0
 35 36  1  0
 36 37  1  0
 37 38  1  0
 38 39  1  0
 39 40  1  0
 40 41  1  0
 34 42  1  0
 34 43  1  0
 35 44  1  0
 35 45  1  0
 36 46  1  0
 36 47  1  0
 37 48  1  0
 37 49  1  0
 38 50  1  0
 38 51  1  0
 39 52  1  0
 39 53  1  0
 40 54  1  0
 40 55  1  0
 41 56  1  0
 41 57  1  0
 41 58  1  0
  4 34  1  6
M  END
>  <attachment_point>  (301) 
21

>  <score>  (301) 
<NA>

$$$$
4djw
     RDKit          3D

 42 45  0  0  0  0  0  0  0  0999 V2000
   22.4950   11.8750   22.5810 C   0  0  0  0  0  0  0  0  0  0  0  0
   22.5380    9.4930   22.4640 N   0  0  0  0  0  0  0  0  0  0  0  0
   22.3600   13.0630   22.3480 O   0  0  0  0  0  0  0  0  0  0  0  0
   22.3390   10.6680   21.5610 C   0  0  2  0  0  0  0  0  0  0  0  0
   22.7860   11.3350   23.8120 N   0  0  0  0  0  0  0  0  0  0  0  0
   22.7800    9.9140   23.7010 C   0  0  0  0  0  0  0  0  0  0  0  0
   22.9970    9.1110   24.7490 N   0  0  0  0  0  0  0  0  0  0  0  0
   23.0220   12.1410   25.0180 C   0  0  0  0  0  0  0  0  0  0  0  0
   29.1260    9.8230   21.7090 N   0  0  0  0  0  0  0  0  0  0  0  0
   23.4880   10.6920   20.5300 C   0  0  0  0  0  0  0  0  0  0  0  0
   23.2110   10.7890   19.1730 C   0  0  0  0  0  0  0  0  0  0  0  0
   24.2350   10.8650   18.2430 C   0  0  0  0  0  0  0  0  0  0  0  0
   25.5500   10.8410   18.6560 C   0  0  0  0  0  0  0  0  0  0  0  0
   25.8710   10.7460   20.0070 C   0  0  0  0  0  0  0  0  0  0  0  0
   24.8260   10.6610   20.9430 C   0  0  0  0  0  0  0  0  0  0  0  0
   29.8540   10.9130   21.4510 C   0  0  0  0  0  0  0  0  0  0  0  0
   27.8830    9.7800   21.2080 C   0  0  0  0  0  0  0  0  0  0  0  0
   27.3000   10.8010   20.4650 C   0  0  0  0  0  0  0  0  0  0  0  0
   28.0930   11.9190   20.2200 C   0  0  0  0  0  0  0  0  0  0  0  0
   29.3850   11.9780   20.7130 C   0  0  0  0  0  0  0  0  0  0  0  0
    0.0000    0.0000    0.0000 H   0  0  0  0  0  0  0  0  0  0  0  0
    0.0000    0.0000    0.0000 H   0  0  0  0  0  0  0  0  0  0  0  0
    0.0000    0.0000    0.0000 H   0  0  0  0  0  0  0  0  0  0  0  0
    0.0000    0.0000    0.0000 H   0  0  0  0  0  0  0  0  0  0  0  0
    0.0000    0.0000    0.0000 H   0  0  0  0  0  0  0  0  0  0  0  0
    0.0000    0.0000    0.0000 H   0  0  0  0  0  0  0  0  0  0  0  0
    0.0000    0.0000    0.0000 H   0  0  0  0  0  0  0  0  0  0  0  0
    0.0000    0.0000    0.0000 H   0  0  0  0  0  0  0  0  0  0  0  0
    0.0000    0.0000    0.0000 H   0  0  0  0  0  0  0  0  0  0  0  0
    0.0000    0.0000    0.0000 H   0  0  0  0  0  0  0  0  0  0  0  0
    0.0000    0.0000    0.0000 H   0  0  0  0  0  0  0  0  0  0  0  0
    0.0000    0.0000    0.0000 H   0  0  0  0  0  0  0  0  0  0  0  0
    0.0000    0.0000    0.0000 H   0  0  0  0  0  0  0  0  0  0  0  0
   10.8857    5.1985   10.5065 N   0  0  0  0  0  0  0  0  0  0  0  0
    9.5909    4.7014   10.7877 C   0  0  0  0  0  0  0  0  0  0  0  0
    9.0860    4.5898   11.9349 O   0  0  0  0  0  0  0  0  0  0  0  0
    8.9643    4.3509    9.5333 C   0  0  0  0  0  0  0  0  0  0  0  0
    9.7899    4.6038    8.5449 C   0  0  0  0  0  0  0  0  0  0  0  0
   11.0090    5.1363    9.0961 C   0  0  0  0  0  0  0  0  0  0  0  0
   12.0302    5.4925    8.4213 O   0  0  0  0  0  0  0  0  0  0  0  0
    7.9526    3.9361    9.4193 H   0  0  0  0  0  0  0  0  0  0  0  0
    9.5869    4.4379    7.4782 H   0  0  0  0  0  0  0  0  0  0  0  0
  1  3  2  0
  1  4  1  0
  2  4  1  0
  1  5  1  0
  2  6  1  0
  5  6  1  0
  6  7  2  3
  5  8  1  0
  4 10  1  0
 10 11  2  0
 11 12  1  0
 12 13  2  0
 13 14  1  0
 10 15  1  0
 14 15  2  0
  9 16  2  0
  9 17  1  0
 14 18  1  0
 17 18  2  0
 18 19  1  0
 16 20  1  0
 19 20  2  0
  2 21  1  0
  7 22  1  0
  8 23  1  0
  8 24  1  0
  8 25  1  0
 11 26  1  0
 12 27  1  0
 13 28  1  0
 15 29  1  0
 16 30  1  0
 17 31  1  0
 19 32  1  0
 20 33  1  0
 34 35  1  0
 35 36  2  0
 35 37  1  0
 37 38  2  0
 38 39  1  0
 39 40  2  0
 39 34  1  0
 37 41  1  0
 38 42  1  0
  4 34  1  6
M  END
>  <attachment_point>  (302) 
21

>  <score>  (302) 
<NA>

$$$$
4djw
     RDKit          3D

 40 42  0  0  0  0  0  0  0  0999 V2000
   22.4950   11.8750   22.5810 C   0  0  0  0  0  0  0  0  0  0  0  0
   22.5380    9.4930   22.4640 N   0  0  0  0  0  0  0  0  0  0  0  0
   22.3600   13.0630   22.3480 O   0  0  0  0  0  0  0  0  0  0  0  0
   22.3390   10.6680   21.5610 C   0  0  2  0  0  0  0  0  0  0  0  0
   22.7860   11.3350   23.8120 N   0  0  0  0  0  0  0  0  0  0  0  0
   22.7800    9.9140   23.7010 C   0  0  0  0  0  0  0  0  0  0  0  0
   22.9970    9.1110   24.7490 N   0  0  0  0  0  0  0  0  0  0  0  0
   23.0220   12.1410   25.0180 C   0  0  0  0  0  0  0  0  0  0  0  0
   29.1260    9.8230   21.7090 N   0  0  0  0  0  0  0  0  0  0  0  0
   23.4880   10.6920   20.5300 C   0  0  0  0  0  0  0  0  0  0  0  0
   23.2110   10.7890   19.1730 C   0  0  0  0  0  0  0  0  0  0  0  0
   24.2350   10.8650   18.2430 C   0  0  0  0  0  0  0  0  0  0  0  0
   25.5500   10.8410   18.6560 C   0  0  0  0  0  0  0  0  0  0  0  0
   25.8710   10.7460   20.0070 C   0  0  0  0  0  0  0  0  0  0  0  0
   24.8260   10.6610   20.9430 C   0  0  0  0  0  0  0  0  0  0  0  0
   29.8540   10.9130   21.4510 C   0  0  0  0  0  0  0  0  0  0  0  0
   27.8830    9.7800   21.2080 C   0  0  0  0  0  0  0  0  0  0  0  0
   27.3000   10.8010   20.4650 C   0  0  0  0  0  0  0  0  0  0  0  0
   28.0930   11.9190   20.2200 C   0  0  0  0  0  0  0  0  0  0  0  0
   29.3850   11.9780   20.7130 C   0  0  0  0  0  0  0  0  0  0  0  0
    0.0000    0.0000    0.0000 H   0  0  0  0  0  0  0  0  0  0  0  0
    0.0000    0.0000    0.0000 H   0  0  0  0  0  0  0  0  0  0  0  0
    0.0000    0.0000    0.0000 H   0  0  0  0  0  0  0  0  0  0  0  0
    0.0000    0.0000    0.0000 H   0  0  0  0  0  0  0  0  0  0  0  0
    0.0000    0.0000    0.0000 H   0  0  0  0  0  0  0  0  0  0  0  0
    0.0000    0.0000    0.0000 H   0  0  0  0  0  0  0  0  0  0  0  0
    0.0000    0.0000    0.0000 H   0  0  0  0  0  0  0  0  0  0  0  0
    0.0000    0.0000    0.0000 H   0  0  0  0  0  0  0  0  0  0  0  0
    0.0000    0.0000    0.0000 H   0  0  0  0  0  0  0  0  0  0  0  0
    0.0000    0.0000    0.0000 H   0  0  0  0  0  0  0  0  0  0  0  0
    0.0000    0.0000    0.0000 H   0  0  0  0  0  0  0  0  0  0  0  0
    0.0000    0.0000    0.0000 H   0  0  0  0  0  0  0  0  0  0  0  0
    0.0000    0.0000    0.0000 H   0  0  0  0  0  0  0  0  0  0  0  0
   10.9647    5.2362   10.5828 O   0  0  0  0  0  0  0  0  0  0  0  0
    9.4755    5.9593   10.3359 S   0  0  0  0  0  6  0  0  0  0  0  0
    9.4954    7.2135    9.2073 N   0  0  0  0  0  0  0  0  0  0  0  0
    9.0062    6.4722   11.6748 O   0  0  0  0  0  0  0  0  0  0  0  0
    8.5117    4.9088    9.9075 O   0  0  0  0  0  0  0  0  0  0  0  0
   10.1827    7.9581    9.3598 H   0  0  0  0  0  0  0  0  0  0  0  0
    9.3093    6.9571    8.2318 H   0  0  0  0  0  0  0  0  0  0  0  0
  1  3  2  0
  1  4  1  0
  2  4  1  0
  1  5  1  0
  2  6  1  0
  5  6  1  0
  6  7  2  3
  5  8  1  0
  4 10  1  0
 10 11  2  0
 11 12  1  0
 12 13  2  0
 13 14  1  0
 10 15  1  0
 14 15  2  0
  9 16  2  0
  9 17  1  0
 14 18  1  0
 17 18  2  0
 18 19  1  0
 16 20  1  0
 19 20  2  0
  2 21  1  0
  7 22  1  0
  8 23  1  0
  8 24  1  0
  8 25  1  0
 11 26  1  0
 12 27  1  0
 13 28  1  0
 15 29  1  0
 16 30  1  0
 17 31  1  0
 19 32  1  0
 20 33  1  0
 34 35  1  0
 35 36  1  0
 35 37  2  0
 35 38  2  0
 36 39  1  0
 36 40  1  0
  4 34  1  6
M  END
>  <attachment_point>  (303) 
21

>  <score>  (303) 
<NA>

$$$$
4djw
     RDKit          3D

 51 55  0  0  0  0  0  0  0  0999 V2000
   22.4950   11.8750   22.5810 C   0  0  0  0  0  0  0  0  0  0  0  0
   22.5380    9.4930   22.4640 N   0  0  0  0  0  0  0  0  0  0  0  0
   22.3600   13.0630   22.3480 O   0  0  0  0  0  0  0  0  0  0  0  0
   22.3390   10.6680   21.5610 C   0  0  2  0  0  0  0  0  0  0  0  0
   22.7860   11.3350   23.8120 N   0  0  0  0  0  0  0  0  0  0  0  0
   22.7800    9.9140   23.7010 C   0  0  0  0  0  0  0  0  0  0  0  0
   22.9970    9.1110   24.7490 N   0  0  0  0  0  0  0  0  0  0  0  0
   23.0220   12.1410   25.0180 C   0  0  0  0  0  0  0  0  0  0  0  0
   29.1260    9.8230   21.7090 N   0  0  0  0  0  0  0  0  0  0  0  0
   23.4880   10.6920   20.5300 C   0  0  0  0  0  0  0  0  0  0  0  0
   23.2110   10.7890   19.1730 C   0  0  0  0  0  0  0  0  0  0  0  0
   24.2350   10.8650   18.2430 C   0  0  0  0  0  0  0  0  0  0  0  0
   25.5500   10.8410   18.6560 C   0  0  0  0  0  0  0  0  0  0  0  0
   25.8710   10.7460   20.0070 C   0  0  0  0  0  0  0  0  0  0  0  0
   24.8260   10.6610   20.9430 C   0  0  0  0  0  0  0  0  0  0  0  0
   29.8540   10.9130   21.4510 C   0  0  0  0  0  0  0  0  0  0  0  0
   27.8830    9.7800   21.2080 C   0  0  0  0  0  0  0  0  0  0  0  0
   27.3000   10.8010   20.4650 C   0  0  0  0  0  0  0  0  0  0  0  0
   28.0930   11.9190   20.2200 C   0  0  0  0  0  0  0  0  0  0  0  0
   29.3850   11.9780   20.7130 C   0  0  0  0  0  0  0  0  0  0  0  0
    0.0000    0.0000    0.0000 H   0  0  0  0  0  0  0  0  0  0  0  0
    0.0000    0.0000    0.0000 H   0  0  0  0  0  0  0  0  0  0  0  0
    0.0000    0.0000    0.0000 H   0  0  0  0  0  0  0  0  0  0  0  0
    0.0000    0.0000    0.0000 H   0  0  0  0  0  0  0  0  0  0  0  0
    0.0000    0.0000    0.0000 H   0  0  0  0  0  0  0  0  0  0  0  0
    0.0000    0.0000    0.0000 H   0  0  0  0  0  0  0  0  0  0  0  0
    0.0000    0.0000    0.0000 H   0  0  0  0  0  0  0  0  0  0  0  0
    0.0000    0.0000    0.0000 H   0  0  0  0  0  0  0  0  0  0  0  0
    0.0000    0.0000    0.0000 H   0  0  0  0  0  0  0  0  0  0  0  0
    0.0000    0.0000    0.0000 H   0  0  0  0  0  0  0  0  0  0  0  0
    0.0000    0.0000    0.0000 H   0  0  0  0  0  0  0  0  0  0  0  0
    0.0000    0.0000    0.0000 H   0  0  0  0  0  0  0  0  0  0  0  0
    0.0000    0.0000    0.0000 H   0  0  0  0  0  0  0  0  0  0  0  0
   10.8663    5.1892   10.4878 C   0  0  0  0  0  0  0  0  0  0  0  0
   11.5662    4.4100    9.4817 N   0  0  0  0  0  0  0  0  0  0  0  0
   11.8241    3.0200    9.5130 C   0  0  0  0  0  0  0  0  0  0  0  0
   11.4815    2.2306   10.4323 O   0  0  0  0  0  0  0  0  0  0  0  0
   12.5526    2.6104    8.3193 C   0  0  0  0  0  0  0  0  0  0  0  0
   13.0516    1.4156    7.8349 C   0  0  0  0  0  0  0  0  0  0  0  0
   13.7198    1.3401    6.6308 C   0  0  0  0  0  0  0  0  0  0  0  0
   13.9123    2.4771    5.8611 C   0  0  0  0  0  0  0  0  0  0  0  0
   13.4181    3.6750    6.3353 C   0  0  0  0  0  0  0  0  0  0  0  0
   12.7440    3.7429    7.5535 C   0  0  0  0  0  0  0  0  0  0  0  0
   12.1339    4.8799    8.2635 C   0  0  0  0  0  0  0  0  0  0  0  0
   12.1314    6.0633    7.8366 O   0  0  0  0  0  0  0  0  0  0  0  0
   10.3704    6.0362    9.9877 H   0  0  0  0  0  0  0  0  0  0  0  0
   10.1549    4.5425   11.0612 H   0  0  0  0  0  0  0  0  0  0  0  0
   12.9101    0.5214    8.4218 H   0  0  0  0  0  0  0  0  0  0  0  0
   14.1216    0.4079    6.2298 H   0  0  0  0  0  0  0  0  0  0  0  0
   14.4425    2.4156    4.9063 H   0  0  0  0  0  0  0  0  0  0  0  0
   13.5575    4.5922    5.7440 H   0  0  0  0  0  0  0  0  0  0  0  0
  1  3  2  0
  1  4  1  0
  2  4  1  0
  1  5  1  0
  2  6  1  0
  5  6  1  0
  6  7  2  3
  5  8  1  0
  4 10  1  0
 10 11  2  0
 11 12  1  0
 12 13  2  0
 13 14  1  0
 10 15  1  0
 14 15  2  0
  9 16  2  0
  9 17  1  0
 14 18  1  0
 17 18  2  0
 18 19  1  0
 16 20  1  0
 19 20  2  0
  2 21  1  0
  7 22  1  0
  8 23  1  0
  8 24  1  0
  8 25  1  0
 11 26  1  0
 12 27  1  0
 13 28  1  0
 15 29  1  0
 16 30  1  0
 17 31  1  0
 19 32  1  0
 20 33  1  0
 34 35  1  0
 35 36  1  0
 36 37  2  0
 36 38  1  0
 38 39  2  0
 39 40  1  0
 40 41  2  0
 41 42  1  0
 42 43  2  0
 43 44  1  0
 44 45  2  0
 44 35  1  0
 43 38  1  0
 34 46  1  0
 34 47  1  0
 39 48  1  0
 40 49  1  0
 41 50  1  0
 42 51  1  0
  4 34  1  6
M  END
>  <attachment_point>  (304) 
21

>  <score>  (304) 
<NA>

$$$$
4djw
     RDKit          3D

 47 50  0  0  0  0  0  0  0  0999 V2000
   22.4950   11.8750   22.5810 C   0  0  0  0  0  0  0  0  0  0  0  0
   22.5380    9.4930   22.4640 N   0  0  0  0  0  0  0  0  0  0  0  0
   22.3600   13.0630   22.3480 O   0  0  0  0  0  0  0  0  0  0  0  0
   22.3390   10.6680   21.5610 C   0  0  2  0  0  0  0  0  0  0  0  0
   22.7860   11.3350   23.8120 N   0  0  0  0  0  0  0  0  0  0  0  0
   22.7800    9.9140   23.7010 C   0  0  0  0  0  0  0  0  0  0  0  0
   22.9970    9.1110   24.7490 N   0  0  0  0  0  0  0  0  0  0  0  0
   23.0220   12.1410   25.0180 C   0  0  0  0  0  0  0  0  0  0  0  0
   29.1260    9.8230   21.7090 N   0  0  0  0  0  0  0  0  0  0  0  0
   23.4880   10.6920   20.5300 C   0  0  0  0  0  0  0  0  0  0  0  0
   23.2110   10.7890   19.1730 C   0  0  0  0  0  0  0  0  0  0  0  0
   24.2350   10.8650   18.2430 C   0  0  0  0  0  0  0  0  0  0  0  0
   25.5500   10.8410   18.6560 C   0  0  0  0  0  0  0  0  0  0  0  0
   25.8710   10.7460   20.0070 C   0  0  0  0  0  0  0  0  0  0  0  0
   24.8260   10.6610   20.9430 C   0  0  0  0  0  0  0  0  0  0  0  0
   29.8540   10.9130   21.4510 C   0  0  0  0  0  0  0  0  0  0  0  0
   27.8830    9.7800   21.2080 C   0  0  0  0  0  0  0  0  0  0  0  0
   27.3000   10.8010   20.4650 C   0  0  0  0  0  0  0  0  0  0  0  0
   28.0930   11.9190   20.2200 C   0  0  0  0  0  0  0  0  0  0  0  0
   29.3850   11.9780   20.7130 C   0  0  0  0  0  0  0  0  0  0  0  0
    0.0000    0.0000    0.0000 H   0  0  0  0  0  0  0  0  0  0  0  0
    0.0000    0.0000    0.0000 H   0  0  0  0  0  0  0  0  0  0  0  0
    0.0000    0.0000    0.0000 H   0  0  0  0  0  0  0  0  0  0  0  0
    0.0000    0.0000    0.0000 H   0  0  0  0  0  0  0  0  0  0  0  0
    0.0000    0.0000    0.0000 H   0  0  0  0  0  0  0  0  0  0  0  0
    0.0000    0.0000    0.0000 H   0  0  0  0  0  0  0  0  0  0  0  0
    0.0000    0.0000    0.0000 H   0  0  0  0  0  0  0  0  0  0  0  0
    0.0000    0.0000    0.0000 H   0  0  0  0  0  0  0  0  0  0  0  0
    0.0000    0.0000    0.0000 H   0  0  0  0  0  0  0  0  0  0  0  0
    0.0000    0.0000    0.0000 H   0  0  0  0  0  0  0  0  0  0  0  0
    0.0000    0.0000    0.0000 H   0  0  0  0  0  0  0  0  0  0  0  0
    0.0000    0.0000    0.0000 H   0  0  0  0  0  0  0  0  0  0  0  0
    0.0000    0.0000    0.0000 H   0  0  0  0  0  0  0  0  0  0  0  0
   10.8630    5.1876   10.4847 C   0  0  0  0  0  0  0  0  0  0  0  0
   11.2737    4.5098    9.3601 C   0  0  0  0  0  0  0  0  0  0  0  0
   10.3519    4.0455    8.4283 C   0  0  0  0  0  0  0  0  0  0  0  0
    9.0572    4.2889    8.6782 N   0  0  0  0  0  0  0  0  0  0  0  0
    8.6038    4.9341    9.7405 C   0  0  0  0  0  0  0  0  0  0  0  0
    7.2590    5.1548    9.9441 O   0  0  0  0  0  0  0  0  0  0  0  0
    6.3140    4.6782    8.9879 C   0  0  0  0  0  0  0  0  0  0  0  0
    9.5228    5.3957   10.6670 C   0  0  0  0  0  0  0  0  0  0  0  0
   12.3217    4.3379    9.2013 H   0  0  0  0  0  0  0  0  0  0  0  0
   10.7547    3.5271    7.5801 H   0  0  0  0  0  0  0  0  0  0  0  0
    5.3345    5.1707    9.0809 H   0  0  0  0  0  0  0  0  0  0  0  0
    6.2128    3.5760    9.0823 H   0  0  0  0  0  0  0  0  0  0  0  0
    6.7196    4.8696    7.9633 H   0  0  0  0  0  0  0  0  0  0  0  0
    9.2286    5.9345   11.5654 H   0  0  0  0  0  0  0  0  0  0  0  0
  1  3  2  0
  1  4  1  0
  2  4  1  0
  1  5  1  0
  2  6  1  0
  5  6  1  0
  6  7  2  3
  5  8  1  0
  4 10  1  6
 10 11  2  0
 11 12  1  0
 12 13  2  0
 13 14  1  0
 10 15  1  0
 14 15  2  0
  9 16  2  0
  9 17  1  0
 14 18  1  0
 17 18  2  0
 18 19  1  0
 16 20  1  0
 19 20  2  0
  2 21  1  0
  7 22  1  0
  8 23  1  0
  8 24  1  0
  8 25  1  0
 11 26  1  0
 12 27  1  0
 13 28  1  0
 15 29  1  0
 16 30  1  0
 17 31  1  0
 19 32  1  0
 20 33  1  0
 34 35  2  0
 35 36  1  0
 36 37  2  0
 37 38  1  0
 38 39  1  0
 39 40  1  0
 38 41  2  0
 41 34  1  0
 35 42  1  0
 36 43  1  0
 40 44  1  0
 40 45  1  0
 40 46  1  0
 41 47  1  0
  4 34  1  0
M  END
>  <attachment_point>  (305) 
21

>  <score>  (305) 
<NA>

$$$$
4djw
     RDKit          3D

 44 47  0  0  0  0  0  0  0  0999 V2000
   22.4950   11.8750   22.5810 C   0  0  0  0  0  0  0  0  0  0  0  0
   22.5380    9.4930   22.4640 N   0  0  0  0  0  0  0  0  0  0  0  0
   22.3600   13.0630   22.3480 O   0  0  0  0  0  0  0  0  0  0  0  0
   22.3390   10.6680   21.5610 C   0  0  2  0  0  0  0  0  0  0  0  0
   22.7860   11.3350   23.8120 N   0  0  0  0  0  0  0  0  0  0  0  0
   22.7800    9.9140   23.7010 C   0  0  0  0  0  0  0  0  0  0  0  0
   22.9970    9.1110   24.7490 N   0  0  0  0  0  0  0  0  0  0  0  0
   23.0220   12.1410   25.0180 C   0  0  0  0  0  0  0  0  0  0  0  0
   29.1260    9.8230   21.7090 N   0  0  0  0  0  0  0  0  0  0  0  0
   23.4880   10.6920   20.5300 C   0  0  0  0  0  0  0  0  0  0  0  0
   23.2110   10.7890   19.1730 C   0  0  0  0  0  0  0  0  0  0  0  0
   24.2350   10.8650   18.2430 C   0  0  0  0  0  0  0  0  0  0  0  0
   25.5500   10.8410   18.6560 C   0  0  0  0  0  0  0  0  0  0  0  0
   25.8710   10.7460   20.0070 C   0  0  0  0  0  0  0  0  0  0  0  0
   24.8260   10.6610   20.9430 C   0  0  0  0  0  0  0  0  0  0  0  0
   29.8540   10.9130   21.4510 C   0  0  0  0  0  0  0  0  0  0  0  0
   27.8830    9.7800   21.2080 C   0  0  0  0  0  0  0  0  0  0  0  0
   27.3000   10.8010   20.4650 C   0  0  0  0  0  0  0  0  0  0  0  0
   28.0930   11.9190   20.2200 C   0  0  0  0  0  0  0  0  0  0  0  0
   29.3850   11.9780   20.7130 C   0  0  0  0  0  0  0  0  0  0  0  0
    0.0000    0.0000    0.0000 H   0  0  0  0  0  0  0  0  0  0  0  0
    0.0000    0.0000    0.0000 H   0  0  0  0  0  0  0  0  0  0  0  0
    0.0000    0.0000    0.0000 H   0  0  0  0  0  0  0  0  0  0  0  0
    0.0000    0.0000    0.0000 H   0  0  0  0  0  0  0  0  0  0  0  0
    0.0000    0.0000    0.0000 H   0  0  0  0  0  0  0  0  0  0  0  0
    0.0000    0.0000    0.0000 H   0  0  0  0  0  0  0  0  0  0  0  0
    0.0000    0.0000    0.0000 H   0  0  0  0  0  0  0  0  0  0  0  0
    0.0000    0.0000    0.0000 H   0  0  0  0  0  0  0  0  0  0  0  0
    0.0000    0.0000    0.0000 H   0  0  0  0  0  0  0  0  0  0  0  0
    0.0000    0.0000    0.0000 H   0  0  0  0  0  0  0  0  0  0  0  0
    0.0000    0.0000    0.0000 H   0  0  0  0  0  0  0  0  0  0  0  0
    0.0000    0.0000    0.0000 H   0  0  0  0  0  0  0  0  0  0  0  0
    0.0000    0.0000    0.0000 H   0  0  0  0  0  0  0  0  0  0  0  0
   10.8758    5.1938   10.4970 C   0  0  0  0  0  0  0  0  0  0  0  0
    9.7949    4.4902   10.9927 C   0  0  0  0  0  0  0  0  0  0  0  0
    8.8649    4.0490   10.0712 C   0  0  0  0  0  0  0  0  0  0  0  0
    9.0331    4.3084    8.7617 N   0  0  0  0  0  0  0  0  0  0  0  0
   10.0825    4.9913    8.2816 C   0  0  0  0  0  0  0  0  0  0  0  0
   10.2088    5.2360    6.8882 N   0  0  0  0  0  0  0  0  0  0  0  0
   10.9960    5.4265    9.1720 N   0  0  0  0  0  0  0  0  0  0  0  0
    9.7086    4.3094   12.0568 H   0  0  0  0  0  0  0  0  0  0  0  0
    8.0141    3.4959   10.4554 H   0  0  0  0  0  0  0  0  0  0  0  0
   10.2187    6.2246    6.5677 H   0  0  0  0  0  0  0  0  0  0  0  0
   10.2911    4.4764    6.1814 H   0  0  0  0  0  0  0  0  0  0  0  0
  1  3  2  0
  1  4  1  0
  2  4  1  0
  1  5  1  0
  2  6  1  0
  5  6  1  0
  6  7  2  3
  5  8  1  0
  4 10  1  6
 10 11  2  0
 11 12  1  0
 12 13  2  0
 13 14  1  0
 10 15  1  0
 14 15  2  0
  9 16  2  0
  9 17  1  0
 14 18  1  0
 17 18  2  0
 18 19  1  0
 16 20  1  0
 19 20  2  0
  2 21  1  0
  7 22  1  0
  8 23  1  0
  8 24  1  0
  8 25  1  0
 11 26  1  0
 12 27  1  0
 13 28  1  0
 15 29  1  0
 16 30  1  0
 17 31  1  0
 19 32  1  0
 20 33  1  0
 34 35  2  0
 35 36  1  0
 36 37  2  0
 37 38  1  0
 38 39  1  0
 38 40  2  0
 40 34  1  0
 35 41  1  0
 36 42  1  0
 39 43  1  0
 39 44  1  0
  4 34  1  0
M  END
>  <attachment_point>  (306) 
21

>  <score>  (306) 
<NA>

$$$$
4djw
     RDKit          3D

 51 55  0  0  0  0  0  0  0  0999 V2000
   22.4950   11.8750   22.5810 C   0  0  0  0  0  0  0  0  0  0  0  0
   22.5380    9.4930   22.4640 N   0  0  0  0  0  0  0  0  0  0  0  0
   22.3600   13.0630   22.3480 O   0  0  0  0  0  0  0  0  0  0  0  0
   22.3390   10.6680   21.5610 C   0  0  2  0  0  0  0  0  0  0  0  0
   22.7860   11.3350   23.8120 N   0  0  0  0  0  0  0  0  0  0  0  0
   22.7800    9.9140   23.7010 C   0  0  0  0  0  0  0  0  0  0  0  0
   22.9970    9.1110   24.7490 N   0  0  0  0  0  0  0  0  0  0  0  0
   23.0220   12.1410   25.0180 C   0  0  0  0  0  0  0  0  0  0  0  0
   29.1260    9.8230   21.7090 N   0  0  0  0  0  0  0  0  0  0  0  0
   23.4880   10.6920   20.5300 C   0  0  0  0  0  0  0  0  0  0  0  0
   23.2110   10.7890   19.1730 C   0  0  0  0  0  0  0  0  0  0  0  0
   24.2350   10.8650   18.2430 C   0  0  0  0  0  0  0  0  0  0  0  0
   25.5500   10.8410   18.6560 C   0  0  0  0  0  0  0  0  0  0  0  0
   25.8710   10.7460   20.0070 C   0  0  0  0  0  0  0  0  0  0  0  0
   24.8260   10.6610   20.9430 C   0  0  0  0  0  0  0  0  0  0  0  0
   29.8540   10.9130   21.4510 C   0  0  0  0  0  0  0  0  0  0  0  0
   27.8830    9.7800   21.2080 C   0  0  0  0  0  0  0  0  0  0  0  0
   27.3000   10.8010   20.4650 C   0  0  0  0  0  0  0  0  0  0  0  0
   28.0930   11.9190   20.2200 C   0  0  0  0  0  0  0  0  0  0  0  0
   29.3850   11.9780   20.7130 C   0  0  0  0  0  0  0  0  0  0  0  0
    0.0000    0.0000    0.0000 H   0  0  0  0  0  0  0  0  0  0  0  0
    0.0000    0.0000    0.0000 H   0  0  0  0  0  0  0  0  0  0  0  0
    0.0000    0.0000    0.0000 H   0  0  0  0  0  0  0  0  0  0  0  0
    0.0000    0.0000    0.0000 H   0  0  0  0  0  0  0  0  0  0  0  0
    0.0000    0.0000    0.0000 H   0  0  0  0  0  0  0  0  0  0  0  0
    0.0000    0.0000    0.0000 H   0  0  0  0  0  0  0  0  0  0  0  0
    0.0000    0.0000    0.0000 H   0  0  0  0  0  0  0  0  0  0  0  0
    0.0000    0.0000    0.0000 H   0  0  0  0  0  0  0  0  0  0  0  0
    0.0000    0.0000    0.0000 H   0  0  0  0  0  0  0  0  0  0  0  0
    0.0000    0.0000    0.0000 H   0  0  0  0  0  0  0  0  0  0  0  0
    0.0000    0.0000    0.0000 H   0  0  0  0  0  0  0  0  0  0  0  0
    0.0000    0.0000    0.0000 H   0  0  0  0  0  0  0  0  0  0  0  0
    0.0000    0.0000    0.0000 H   0  0  0  0  0  0  0  0  0  0  0  0
   10.8372    5.1753   10.4597 C   0  0  0  0  0  0  0  0  0  0  0  0
   10.8291    3.9467    9.9612 N   0  0  0  0  0  0  0  0  0  0  0  0
    9.7688    3.8543    9.1036 C   0  0  0  0  0  0  0  0  0  0  0  0
    9.2701    2.8447    8.3131 C   0  0  0  0  0  0  0  0  0  0  0  0
    8.1547    3.0250    7.5221 C   0  0  0  0  0  0  0  0  0  0  0  0
    7.6139    1.9671    6.6798 C   0  0  0  0  0  0  0  0  0  0  0  0
    6.4688    2.1448    5.8650 N   0  0  0  0  0  0  0  0  0  0  0  0
    8.1875    0.8450    6.6741 O   0  0  0  0  0  0  0  0  0  0  0  0
    7.5511    4.2644    7.5515 C   0  0  0  0  0  0  0  0  0  0  0  0
    8.0557    5.2926    8.3541 C   0  0  0  0  0  0  0  0  0  0  0  0
    9.1672    5.0902    9.1331 C   0  0  0  0  0  0  0  0  0  0  0  0
    9.8472    5.9071    9.9867 N   0  0  0  0  0  0  0  0  0  0  0  0
    9.7597    1.8969    8.3125 H   0  0  0  0  0  0  0  0  0  0  0  0
    5.8813    1.3154    5.6069 H   0  0  0  0  0  0  0  0  0  0  0  0
    6.1898    3.0985    5.5082 H   0  0  0  0  0  0  0  0  0  0  0  0
    6.6649    4.4791    6.9517 H   0  0  0  0  0  0  0  0  0  0  0  0
    7.5886    6.2708    8.3845 H   0  0  0  0  0  0  0  0  0  0  0  0
    9.6435    6.9018   10.2276 H   0  0  0  0  0  0  0  0  0  0  0  0
  1  3  2  0
  1  4  1  0
  2  4  1  0
  1  5  1  0
  2  6  1  0
  5  6  1  0
  6  7  2  3
  5  8  1  0
  4 10  1  6
 10 11  2  0
 11 12  1  0
 12 13  2  0
 13 14  1  0
 10 15  1  0
 14 15  2  0
  9 16  2  0
  9 17  1  0
 14 18  1  0
 17 18  2  0
 18 19  1  0
 16 20  1  0
 19 20  2  0
  2 21  1  0
  7 22  1  0
  8 23  1  0
  8 24  1  0
  8 25  1  0
 11 26  1  0
 12 27  1  0
 13 28  1  0
 15 29  1  0
 16 30  1  0
 17 31  1  0
 19 32  1  0
 20 33  1  0
 34 35  2  0
 35 36  1  0
 36 37  2  0
 37 38  1  0
 38 39  1  0
 39 40  1  0
 39 41  2  0
 38 42  2  0
 42 43  1  0
 43 44  2  0
 44 45  1  0
 45 34  1  0
 44 36  1  0
 37 46  1  0
 40 47  1  0
 40 48  1  0
 42 49  1  0
 43 50  1  0
 45 51  1  0
  4 34  1  0
M  END
>  <attachment_point>  (307) 
21

>  <score>  (307) 
<NA>

$$$$
4djw
     RDKit          3D

 44 47  0  0  0  0  0  0  0  0999 V2000
   22.4950   11.8750   22.5810 C   0  0  0  0  0  0  0  0  0  0  0  0
   22.5380    9.4930   22.4640 N   0  0  0  0  0  0  0  0  0  0  0  0
   22.3600   13.0630   22.3480 O   0  0  0  0  0  0  0  0  0  0  0  0
   22.3390   10.6680   21.5610 C   0  0  2  0  0  0  0  0  0  0  0  0
   22.7860   11.3350   23.8120 N   0  0  0  0  0  0  0  0  0  0  0  0
   22.7800    9.9140   23.7010 C   0  0  0  0  0  0  0  0  0  0  0  0
   22.9970    9.1110   24.7490 N   0  0  0  0  0  0  0  0  0  0  0  0
   23.0220   12.1410   25.0180 C   0  0  0  0  0  0  0  0  0  0  0  0
   29.1260    9.8230   21.7090 N   0  0  0  0  0  0  0  0  0  0  0  0
   23.4880   10.6920   20.5300 C   0  0  0  0  0  0  0  0  0  0  0  0
   23.2110   10.7890   19.1730 C   0  0  0  0  0  0  0  0  0  0  0  0
   24.2350   10.8650   18.2430 C   0  0  0  0  0  0  0  0  0  0  0  0
   25.5500   10.8410   18.6560 C   0  0  0  0  0  0  0  0  0  0  0  0
   25.8710   10.7460   20.0070 C   0  0  0  0  0  0  0  0  0  0  0  0
   24.8260   10.6610   20.9430 C   0  0  0  0  0  0  0  0  0  0  0  0
   29.8540   10.9130   21.4510 C   0  0  0  0  0  0  0  0  0  0  0  0
   27.8830    9.7800   21.2080 C   0  0  0  0  0  0  0  0  0  0  0  0
   27.3000   10.8010   20.4650 C   0  0  0  0  0  0  0  0  0  0  0  0
   28.0930   11.9190   20.2200 C   0  0  0  0  0  0  0  0  0  0  0  0
   29.3850   11.9780   20.7130 C   0  0  0  0  0  0  0  0  0  0  0  0
    0.0000    0.0000    0.0000 H   0  0  0  0  0  0  0  0  0  0  0  0
    0.0000    0.0000    0.0000 H   0  0  0  0  0  0  0  0  0  0  0  0
    0.0000    0.0000    0.0000 H   0  0  0  0  0  0  0  0  0  0  0  0
    0.0000    0.0000    0.0000 H   0  0  0  0  0  0  0  0  0  0  0  0
    0.0000    0.0000    0.0000 H   0  0  0  0  0  0  0  0  0  0  0  0
    0.0000    0.0000    0.0000 H   0  0  0  0  0  0  0  0  0  0  0  0
    0.0000    0.0000    0.0000 H   0  0  0  0  0  0  0  0  0  0  0  0
    0.0000    0.0000    0.0000 H   0  0  0  0  0  0  0  0  0  0  0  0
    0.0000    0.0000    0.0000 H   0  0  0  0  0  0  0  0  0  0  0  0
    0.0000    0.0000    0.0000 H   0  0  0  0  0  0  0  0  0  0  0  0
    0.0000    0.0000    0.0000 H   0  0  0  0  0  0  0  0  0  0  0  0
    0.0000    0.0000    0.0000 H   0  0  0  0  0  0  0  0  0  0  0  0
    0.0000    0.0000    0.0000 H   0  0  0  0  0  0  0  0  0  0  0  0
   10.8320    5.1728   10.4548 C   0  0  0  0  0  0  0  0  0  0  0  0
   10.0574    6.0295    9.8314 N   0  0  0  0  0  0  0  0  0  0  0  0
    9.2355    5.3088    9.0049 C   0  0  0  0  0  0  0  0  0  0  0  0
    9.5939    3.9978    9.2006 C   0  0  0  0  0  0  0  0  0  0  0  0
   10.6093    3.9308   10.1248 N   0  0  0  0  0  0  0  0  0  0  0  0
   11.2666    2.7053   10.6034 C   0  0  0  0  0  0  0  0  0  0  0  0
    8.5015    5.7251    8.3742 H   0  0  0  0  0  0  0  0  0  0  0  0
    9.1996    3.0974    8.7480 H   0  0  0  0  0  0  0  0  0  0  0  0
   10.5465    1.8540   10.5304 H   0  0  0  0  0  0  0  0  0  0  0  0
   12.1816    2.5696   10.0362 H   0  0  0  0  0  0  0  0  0  0  0  0
   11.5315    2.7847   11.6775 H   0  0  0  0  0  0  0  0  0  0  0  0
  1  3  2  0
  1  4  1  0
  2  4  1  0
  1  5  1  0
  2  6  1  0
  5  6  1  0
  6  7  2  3
  5  8  1  0
  4 10  1  6
 10 11  2  0
 11 12  1  0
 12 13  2  0
 13 14  1  0
 10 15  1  0
 14 15  2  0
  9 16  2  0
  9 17  1  0
 14 18  1  0
 17 18  2  0
 18 19  1  0
 16 20  1  0
 19 20  2  0
  2 21  1  0
  7 22  1  0
  8 23  1  0
  8 24  1  0
  8 25  1  0
 11 26  1  0
 12 27  1  0
 13 28  1  0
 15 29  1  0
 16 30  1  0
 17 31  1  0
 19 32  1  0
 20 33  1  0
 34 35  2  0
 35 36  1  0
 36 37  2  0
 37 38  1  0
 38 39  1  0
 38 34  1  0
 36 40  1  0
 37 41  1  0
 39 42  1  0
 39 43  1  0
 39 44  1  0
  4 34  1  0
M  END
>  <attachment_point>  (308) 
21

>  <score>  (308) 
<NA>

$$$$
4djw
     RDKit          3D

 48 50  0  0  0  0  0  0  0  0999 V2000
   22.4950   11.8750   22.5810 C   0  0  0  0  0  0  0  0  0  0  0  0
   22.5380    9.4930   22.4640 N   0  0  0  0  0  0  0  0  0  0  0  0
   22.3600   13.0630   22.3480 O   0  0  0  0  0  0  0  0  0  0  0  0
   22.3390   10.6680   21.5610 C   0  0  2  0  0  0  0  0  0  0  0  0
   22.7860   11.3350   23.8120 N   0  0  0  0  0  0  0  0  0  0  0  0
   22.7800    9.9140   23.7010 C   0  0  0  0  0  0  0  0  0  0  0  0
   22.9970    9.1110   24.7490 N   0  0  0  0  0  0  0  0  0  0  0  0
   23.0220   12.1410   25.0180 C   0  0  0  0  0  0  0  0  0  0  0  0
   29.1260    9.8230   21.7090 N   0  0  0  0  0  0  0  0  0  0  0  0
   23.4880   10.6920   20.5300 C   0  0  0  0  0  0  0  0  0  0  0  0
   23.2110   10.7890   19.1730 C   0  0  0  0  0  0  0  0  0  0  0  0
   24.2350   10.8650   18.2430 C   0  0  0  0  0  0  0  0  0  0  0  0
   25.5500   10.8410   18.6560 C   0  0  0  0  0  0  0  0  0  0  0  0
   25.8710   10.7460   20.0070 C   0  0  0  0  0  0  0  0  0  0  0  0
   24.8260   10.6610   20.9430 C   0  0  0  0  0  0  0  0  0  0  0  0
   29.8540   10.9130   21.4510 C   0  0  0  0  0  0  0  0  0  0  0  0
   27.8830    9.7800   21.2080 C   0  0  0  0  0  0  0  0  0  0  0  0
   27.3000   10.8010   20.4650 C   0  0  0  0  0  0  0  0  0  0  0  0
   28.0930   11.9190   20.2200 C   0  0  0  0  0  0  0  0  0  0  0  0
   29.3850   11.9780   20.7130 C   0  0  0  0  0  0  0  0  0  0  0  0
    0.0000    0.0000    0.0000 H   0  0  0  0  0  0  0  0  0  0  0  0
    0.0000    0.0000    0.0000 H   0  0  0  0  0  0  0  0  0  0  0  0
    0.0000    0.0000    0.0000 H   0  0  0  0  0  0  0  0  0  0  0  0
    0.0000    0.0000    0.0000 H   0  0  0  0  0  0  0  0  0  0  0  0
    0.0000    0.0000    0.0000 H   0  0  0  0  0  0  0  0  0  0  0  0
    0.0000    0.0000    0.0000 H   0  0  0  0  0  0  0  0  0  0  0  0
    0.0000    0.0000    0.0000 H   0  0  0  0  0  0  0  0  0  0  0  0
    0.0000    0.0000    0.0000 H   0  0  0  0  0  0  0  0  0  0  0  0
    0.0000    0.0000    0.0000 H   0  0  0  0  0  0  0  0  0  0  0  0
    0.0000    0.0000    0.0000 H   0  0  0  0  0  0  0  0  0  0  0  0
    0.0000    0.0000    0.0000 H   0  0  0  0  0  0  0  0  0  0  0  0
    0.0000    0.0000    0.0000 H   0  0  0  0  0  0  0  0  0  0  0  0
    0.0000    0.0000    0.0000 H   0  0  0  0  0  0  0  0  0  0  0  0
   10.8101    5.1624   10.4336 N   0  0  0  0  0  0  0  0  0  0  0  0
    9.8473    4.9513   11.5235 C   0  0  0  0  0  0  0  0  0  0  0  0
   10.4666    3.9434   12.4854 C   0  0  0  0  0  0  0  0  0  0  0  0
    8.6033    4.4218   10.9237 C   0  0  0  0  0  0  0  0  0  0  0  0
    9.5623    6.2628   12.2267 C   0  0  0  0  0  0  0  0  0  0  0  0
   10.7456    6.1243   10.0438 H   0  0  0  0  0  0  0  0  0  0  0  0
   11.0283    4.5543   13.2328 H   0  0  0  0  0  0  0  0  0  0  0  0
   11.1938    3.2945   11.9710 H   0  0  0  0  0  0  0  0  0  0  0  0
    9.6678    3.3986   13.0133 H   0  0  0  0  0  0  0  0  0  0  0  0
    7.7630    4.5506   11.6692 H   0  0  0  0  0  0  0  0  0  0  0  0
    8.6469    3.3084   10.7658 H   0  0  0  0  0  0  0  0  0  0  0  0
    8.3169    4.9269   10.0010 H   0  0  0  0  0  0  0  0  0  0  0  0
    8.6165    6.7207   11.8628 H   0  0  0  0  0  0  0  0  0  0  0  0
   10.4489    6.9176   12.0448 H   0  0  0  0  0  0  0  0  0  0  0  0
    9.5191    6.0635   13.3258 H   0  0  0  0  0  0  0  0  0  0  0  0
  1  3  2  0
  1  4  1  0
  2  4  1  0
  1  5  1  0
  2  6  1  0
  5  6  1  0
  6  7  2  3
  5  8  1  0
  4 10  1  0
 10 11  2  0
 11 12  1  0
 12 13  2  0
 13 14  1  0
 10 15  1  0
 14 15  2  0
  9 16  2  0
  9 17  1  0
 14 18  1  0
 17 18  2  0
 18 19  1  0
 16 20  1  0
 19 20  2  0
  2 21  1  0
  7 22  1  0
  8 23  1  0
  8 24  1  0
  8 25  1  0
 11 26  1  0
 12 27  1  0
 13 28  1  0
 15 29  1  0
 16 30  1  0
 17 31  1  0
 19 32  1  0
 20 33  1  0
 34 35  1  0
 35 36  1  0
 35 37  1  0
 35 38  1  0
 34 39  1  0
 36 40  1  0
 36 41  1  0
 36 42  1  0
 37 43  1  0
 37 44  1  0
 37 45  1  0
 38 46  1  0
 38 47  1  0
 38 48  1  0
  4 34  1  6
M  END
>  <attachment_point>  (309) 
21

>  <score>  (309) 
<NA>

$$$$
4djw
     RDKit          3D

 48 51  0  0  0  0  0  0  0  0999 V2000
   22.4950   11.8750   22.5810 C   0  0  0  0  0  0  0  0  0  0  0  0
   22.5380    9.4930   22.4640 N   0  0  0  0  0  0  0  0  0  0  0  0
   22.3600   13.0630   22.3480 O   0  0  0  0  0  0  0  0  0  0  0  0
   22.3390   10.6680   21.5610 C   0  0  2  0  0  0  0  0  0  0  0  0
   22.7860   11.3350   23.8120 N   0  0  0  0  0  0  0  0  0  0  0  0
   22.7800    9.9140   23.7010 C   0  0  0  0  0  0  0  0  0  0  0  0
   22.9970    9.1110   24.7490 N   0  0  0  0  0  0  0  0  0  0  0  0
   23.0220   12.1410   25.0180 C   0  0  0  0  0  0  0  0  0  0  0  0
   29.1260    9.8230   21.7090 N   0  0  0  0  0  0  0  0  0  0  0  0
   23.4880   10.6920   20.5300 C   0  0  0  0  0  0  0  0  0  0  0  0
   23.2110   10.7890   19.1730 C   0  0  0  0  0  0  0  0  0  0  0  0
   24.2350   10.8650   18.2430 C   0  0  0  0  0  0  0  0  0  0  0  0
   25.5500   10.8410   18.6560 C   0  0  0  0  0  0  0  0  0  0  0  0
   25.8710   10.7460   20.0070 C   0  0  0  0  0  0  0  0  0  0  0  0
   24.8260   10.6610   20.9430 C   0  0  0  0  0  0  0  0  0  0  0  0
   29.8540   10.9130   21.4510 C   0  0  0  0  0  0  0  0  0  0  0  0
   27.8830    9.7800   21.2080 C   0  0  0  0  0  0  0  0  0  0  0  0
   27.3000   10.8010   20.4650 C   0  0  0  0  0  0  0  0  0  0  0  0
   28.0930   11.9190   20.2200 C   0  0  0  0  0  0  0  0  0  0  0  0
   29.3850   11.9780   20.7130 C   0  0  0  0  0  0  0  0  0  0  0  0
    0.0000    0.0000    0.0000 H   0  0  0  0  0  0  0  0  0  0  0  0
    0.0000    0.0000    0.0000 H   0  0  0  0  0  0  0  0  0  0  0  0
    0.0000    0.0000    0.0000 H   0  0  0  0  0  0  0  0  0  0  0  0
    0.0000    0.0000    0.0000 H   0  0  0  0  0  0  0  0  0  0  0  0
    0.0000    0.0000    0.0000 H   0  0  0  0  0  0  0  0  0  0  0  0
    0.0000    0.0000    0.0000 H   0  0  0  0  0  0  0  0  0  0  0  0
    0.0000    0.0000    0.0000 H   0  0  0  0  0  0  0  0  0  0  0  0
    0.0000    0.0000    0.0000 H   0  0  0  0  0  0  0  0  0  0  0  0
    0.0000    0.0000    0.0000 H   0  0  0  0  0  0  0  0  0  0  0  0
    0.0000    0.0000    0.0000 H   0  0  0  0  0  0  0  0  0  0  0  0
    0.0000    0.0000    0.0000 H   0  0  0  0  0  0  0  0  0  0  0  0
    0.0000    0.0000    0.0000 H   0  0  0  0  0  0  0  0  0  0  0  0
    0.0000    0.0000    0.0000 H   0  0  0  0  0  0  0  0  0  0  0  0
   10.8689    5.1905   10.4904 C   0  0  0  0  0  0  0  0  0  0  0  0
    9.6382    5.2469   10.7309 O   0  0  0  0  0  0  0  0  0  0  0  0
   11.2687    4.6432    9.2394 N   0  0  0  0  0  0  0  0  0  0  0  0
   10.3312    4.1699    8.2776 C   0  0  0  0  0  0  0  0  0  0  0  0
    9.8472    5.0700    7.3240 C   0  0  0  0  0  0  0  0  0  0  0  0
    8.9396    4.6867    6.3627 C   0  0  0  0  0  0  0  0  0  0  0  0
    8.4911    3.3929    6.3289 C   0  0  0  0  0  0  0  0  0  0  0  0
    7.5850    2.9847    5.3794 F   0  0  0  0  0  0  0  0  0  0  0  0
    8.9574    2.4919    7.2611 C   0  0  0  0  0  0  0  0  0  0  0  0
    9.8666    2.8920    8.2175 C   0  0  0  0  0  0  0  0  0  0  0  0
   12.3067    4.6055    9.0583 H   0  0  0  0  0  0  0  0  0  0  0  0
   10.1914    6.0887    7.3395 H   0  0  0  0  0  0  0  0  0  0  0  0
    8.5555    5.3840    5.6128 H   0  0  0  0  0  0  0  0  0  0  0  0
    8.6038    1.4535    7.2418 H   0  0  0  0  0  0  0  0  0  0  0  0
   10.2503    2.1879    8.9698 H   0  0  0  0  0  0  0  0  0  0  0  0
  1  3  2  0
  1  4  1  0
  2  4  1  0
  1  5  1  0
  2  6  1  0
  5  6  1  0
  6  7  2  3
  5  8  1  0
  4 10  1  0
 10 11  2  0
 11 12  1  0
 12 13  2  0
 13 14  1  0
 10 15  1  0
 14 15  2  0
  9 16  2  0
  9 17  1  0
 14 18  1  0
 17 18  2  0
 18 19  1  0
 16 20  1  0
 19 20  2  0
  2 21  1  0
  7 22  1  0
  8 23  1  0
  8 24  1  0
  8 25  1  0
 11 26  1  0
 12 27  1  0
 13 28  1  0
 15 29  1  0
 16 30  1  0
 17 31  1  0
 19 32  1  0
 20 33  1  0
 34 35  2  0
 34 36  1  0
 36 37  1  0
 37 38  2  0
 38 39  1  0
 39 40  2  0
 40 41  1  0
 40 42  1  0
 42 43  2  0
 43 37  1  0
 36 44  1  0
 38 45  1  0
 39 46  1  0
 42 47  1  0
 43 48  1  0
  4 34  1  6
M  END
>  <attachment_point>  (310) 
21

>  <score>  (310) 
<NA>

$$$$
4djw
     RDKit          3D

 40 43  0  0  0  0  0  0  0  0999 V2000
   22.4950   11.8750   22.5810 C   0  0  0  0  0  0  0  0  0  0  0  0
   22.5380    9.4930   22.4640 N   0  0  0  0  0  0  0  0  0  0  0  0
   22.3600   13.0630   22.3480 O   0  0  0  0  0  0  0  0  0  0  0  0
   22.3390   10.6680   21.5610 C   0  0  2  0  0  0  0  0  0  0  0  0
   22.7860   11.3350   23.8120 N   0  0  0  0  0  0  0  0  0  0  0  0
   22.7800    9.9140   23.7010 C   0  0  0  0  0  0  0  0  0  0  0  0
   22.9970    9.1110   24.7490 N   0  0  0  0  0  0  0  0  0  0  0  0
   23.0220   12.1410   25.0180 C   0  0  0  0  0  0  0  0  0  0  0  0
   29.1260    9.8230   21.7090 N   0  0  0  0  0  0  0  0  0  0  0  0
   23.4880   10.6920   20.5300 C   0  0  0  0  0  0  0  0  0  0  0  0
   23.2110   10.7890   19.1730 C   0  0  0  0  0  0  0  0  0  0  0  0
   24.2350   10.8650   18.2430 C   0  0  0  0  0  0  0  0  0  0  0  0
   25.5500   10.8410   18.6560 C   0  0  0  0  0  0  0  0  0  0  0  0
   25.8710   10.7460   20.0070 C   0  0  0  0  0  0  0  0  0  0  0  0
   24.8260   10.6610   20.9430 C   0  0  0  0  0  0  0  0  0  0  0  0
   29.8540   10.9130   21.4510 C   0  0  0  0  0  0  0  0  0  0  0  0
   27.8830    9.7800   21.2080 C   0  0  0  0  0  0  0  0  0  0  0  0
   27.3000   10.8010   20.4650 C   0  0  0  0  0  0  0  0  0  0  0  0
   28.0930   11.9190   20.2200 C   0  0  0  0  0  0  0  0  0  0  0  0
   29.3850   11.9780   20.7130 C   0  0  0  0  0  0  0  0  0  0  0  0
    0.0000    0.0000    0.0000 H   0  0  0  0  0  0  0  0  0  0  0  0
    0.0000    0.0000    0.0000 H   0  0  0  0  0  0  0  0  0  0  0  0
    0.0000    0.0000    0.0000 H   0  0  0  0  0  0  0  0  0  0  0  0
    0.0000    0.0000    0.0000 H   0  0  0  0  0  0  0  0  0  0  0  0
    0.0000    0.0000    0.0000 H   0  0  0  0  0  0  0  0  0  0  0  0
    0.0000    0.0000    0.0000 H   0  0  0  0  0  0  0  0  0  0  0  0
    0.0000    0.0000    0.0000 H   0  0  0  0  0  0  0  0  0  0  0  0
    0.0000    0.0000    0.0000 H   0  0  0  0  0  0  0  0  0  0  0  0
    0.0000    0.0000    0.0000 H   0  0  0  0  0  0  0  0  0  0  0  0
    0.0000    0.0000    0.0000 H   0  0  0  0  0  0  0  0  0  0  0  0
    0.0000    0.0000    0.0000 H   0  0  0  0  0  0  0  0  0  0  0  0
    0.0000    0.0000    0.0000 H   0  0  0  0  0  0  0  0  0  0  0  0
    0.0000    0.0000    0.0000 H   0  0  0  0  0  0  0  0  0  0  0  0
   10.8326    5.1731   10.4553 C   0  0  0  0  0  0  0  0  0  0  0  0
    9.8224    5.9407    9.9823 C   0  0  0  0  0  0  0  0  0  0  0  0
    9.1502    5.1238    9.1345 N   0  0  0  0  0  0  0  0  0  0  0  0
    9.7743    3.9341    9.1395 C   0  0  0  0  0  0  0  0  0  0  0  0
   10.8216    3.9885    9.9713 O   0  0  0  0  0  0  0  0  0  0  0  0
    9.6138    6.9703   10.2344 H   0  0  0  0  0  0  0  0  0  0  0  0
    9.5277    3.0309    8.5861 H   0  0  0  0  0  0  0  0  0  0  0  0
  1  3  2  0
  1  4  1  0
  2  4  1  0
  1  5  1  0
  2  6  1  0
  5  6  1  0
  6  7  2  3
  5  8  1  0
  4 10  1  6
 10 11  2  0
 11 12  1  0
 12 13  2  0
 13 14  1  0
 10 15  1  0
 14 15  2  0
  9 16  2  0
  9 17  1  0
 14 18  1  0
 17 18  2  0
 18 19  1  0
 16 20  1  0
 19 20  2  0
  2 21  1  0
  7 22  1  0
  8 23  1  0
  8 24  1  0
  8 25  1  0
 11 26  1  0
 12 27  1  0
 13 28  1  0
 15 29  1  0
 16 30  1  0
 17 31  1  0
 19 32  1  0
 20 33  1  0
 34 35  2  0
 35 36  1  0
 36 37  2  0
 37 38  1  0
 38 34  1  0
 35 39  1  0
 37 40  1  0
  4 34  1  0
M  END
>  <attachment_point>  (311) 
21

>  <score>  (311) 
<NA>

$$$$
4djw
     RDKit          3D

 47 50  0  0  0  0  0  0  0  0999 V2000
   22.4950   11.8750   22.5810 C   0  0  0  0  0  0  0  0  0  0  0  0
   22.5380    9.4930   22.4640 N   0  0  0  0  0  0  0  0  0  0  0  0
   22.3600   13.0630   22.3480 O   0  0  0  0  0  0  0  0  0  0  0  0
   22.3390   10.6680   21.5610 C   0  0  2  0  0  0  0  0  0  0  0  0
   22.7860   11.3350   23.8120 N   0  0  0  0  0  0  0  0  0  0  0  0
   22.7800    9.9140   23.7010 C   0  0  0  0  0  0  0  0  0  0  0  0
   22.9970    9.1110   24.7490 N   0  0  0  0  0  0  0  0  0  0  0  0
   23.0220   12.1410   25.0180 C   0  0  0  0  0  0  0  0  0  0  0  0
   29.1260    9.8230   21.7090 N   0  0  0  0  0  0  0  0  0  0  0  0
   23.4880   10.6920   20.5300 C   0  0  0  0  0  0  0  0  0  0  0  0
   23.2110   10.7890   19.1730 C   0  0  0  0  0  0  0  0  0  0  0  0
   24.2350   10.8650   18.2430 C   0  0  0  0  0  0  0  0  0  0  0  0
   25.5500   10.8410   18.6560 C   0  0  0  0  0  0  0  0  0  0  0  0
   25.8710   10.7460   20.0070 C   0  0  0  0  0  0  0  0  0  0  0  0
   24.8260   10.6610   20.9430 C   0  0  0  0  0  0  0  0  0  0  0  0
   29.8540   10.9130   21.4510 C   0  0  0  0  0  0  0  0  0  0  0  0
   27.8830    9.7800   21.2080 C   0  0  0  0  0  0  0  0  0  0  0  0
   27.3000   10.8010   20.4650 C   0  0  0  0  0  0  0  0  0  0  0  0
   28.0930   11.9190   20.2200 C   0  0  0  0  0  0  0  0  0  0  0  0
   29.3850   11.9780   20.7130 C   0  0  0  0  0  0  0  0  0  0  0  0
    0.0000    0.0000    0.0000 H   0  0  0  0  0  0  0  0  0  0  0  0
    0.0000    0.0000    0.0000 H   0  0  0  0  0  0  0  0  0  0  0  0
    0.0000    0.0000    0.0000 H   0  0  0  0  0  0  0  0  0  0  0  0
    0.0000    0.0000    0.0000 H   0  0  0  0  0  0  0  0  0  0  0  0
    0.0000    0.0000    0.0000 H   0  0  0  0  0  0  0  0  0  0  0  0
    0.0000    0.0000    0.0000 H   0  0  0  0  0  0  0  0  0  0  0  0
    0.0000    0.0000    0.0000 H   0  0  0  0  0  0  0  0  0  0  0  0
    0.0000    0.0000    0.0000 H   0  0  0  0  0  0  0  0  0  0  0  0
    0.0000    0.0000    0.0000 H   0  0  0  0  0  0  0  0  0  0  0  0
    0.0000    0.0000    0.0000 H   0  0  0  0  0  0  0  0  0  0  0  0
    0.0000    0.0000    0.0000 H   0  0  0  0  0  0  0  0  0  0  0  0
    0.0000    0.0000    0.0000 H   0  0  0  0  0  0  0  0  0  0  0  0
    0.0000    0.0000    0.0000 H   0  0  0  0  0  0  0  0  0  0  0  0
   10.8323    5.1730   10.4550 O   0  0  0  0  0  0  0  0  0  0  0  0
   11.1482    6.0926    9.4379 C   0  0  0  0  0  0  0  0  0  0  0  0
   12.5455    5.9566    9.0018 C   0  0  0  0  0  0  0  0  0  0  0  0
   13.4920    6.7156    9.6608 C   0  0  0  0  0  0  0  0  0  0  0  0
   14.8171    6.5974    9.2595 C   0  0  0  0  0  0  0  0  0  0  0  0
   15.1610    5.7410    8.2296 C   0  0  0  0  0  0  0  0  0  0  0  0
   14.2217    5.0136    7.6047 N   0  0  0  0  0  0  0  0  0  0  0  0
   12.9292    5.1026    7.9667 C   0  0  0  0  0  0  0  0  0  0  0  0
   10.4111    5.9256    8.6570 H   0  0  0  0  0  0  0  0  0  0  0  0
   10.9844    7.1432    9.8080 H   0  0  0  0  0  0  0  0  0  0  0  0
   13.2241    7.3981   10.4803 H   0  0  0  0  0  0  0  0  0  0  0  0
   15.5615    7.1789    9.7603 H   0  0  0  0  0  0  0  0  0  0  0  0
   16.2187    5.6847    7.9519 H   0  0  0  0  0  0  0  0  0  0  0  0
   12.1382    4.5395    7.4958 H   0  0  0  0  0  0  0  0  0  0  0  0
  1  3  2  0
  1  4  1  0
  2  4  1  0
  1  5  1  0
  2  6  1  0
  5  6  1  0
  6  7  2  3
  5  8  1  0
  4 10  1  0
 10 11  2  0
 11 12  1  0
 12 13  2  0
 13 14  1  0
 10 15  1  0
 14 15  2  0
  9 16  2  0
  9 17  1  0
 14 18  1  0
 17 18  2  0
 18 19  1  0
 16 20  1  0
 19 20  2  0
  2 21  1  0
  7 22  1  0
  8 23  1  0
  8 24  1  0
  8 25  1  0
 11 26  1  0
 12 27  1  0
 13 28  1  0
 15 29  1  0
 16 30  1  0
 17 31  1  0
 19 32  1  0
 20 33  1  0
 34 35  1  0
 35 36  1  0
 36 37  2  0
 37 38  1  0
 38 39  2  0
 39 40  1  0
 40 41  2  0
 41 36  1  0
 35 42  1  0
 35 43  1  0
 37 44  1  0
 38 45  1  0
 39 46  1  0
 41 47  1  0
  4 34  1  6
M  END
>  <attachment_point>  (312) 
21

>  <score>  (312) 
<NA>

$$$$
4djw
     RDKit          3D

 44 46  0  0  0  0  0  0  0  0999 V2000
   22.4950   11.8750   22.5810 C   0  0  0  0  0  0  0  0  0  0  0  0
   22.5380    9.4930   22.4640 N   0  0  0  0  0  0  0  0  0  0  0  0
   22.3600   13.0630   22.3480 O   0  0  0  0  0  0  0  0  0  0  0  0
   22.3390   10.6680   21.5610 C   0  0  2  0  0  0  0  0  0  0  0  0
   22.7860   11.3350   23.8120 N   0  0  0  0  0  0  0  0  0  0  0  0
   22.7800    9.9140   23.7010 C   0  0  0  0  0  0  0  0  0  0  0  0
   22.9970    9.1110   24.7490 N   0  0  0  0  0  0  0  0  0  0  0  0
   23.0220   12.1410   25.0180 C   0  0  0  0  0  0  0  0  0  0  0  0
   29.1260    9.8230   21.7090 N   0  0  0  0  0  0  0  0  0  0  0  0
   23.4880   10.6920   20.5300 C   0  0  0  0  0  0  0  0  0  0  0  0
   23.2110   10.7890   19.1730 C   0  0  0  0  0  0  0  0  0  0  0  0
   24.2350   10.8650   18.2430 C   0  0  0  0  0  0  0  0  0  0  0  0
   25.5500   10.8410   18.6560 C   0  0  0  0  0  0  0  0  0  0  0  0
   25.8710   10.7460   20.0070 C   0  0  0  0  0  0  0  0  0  0  0  0
   24.8260   10.6610   20.9430 C   0  0  0  0  0  0  0  0  0  0  0  0
   29.8540   10.9130   21.4510 C   0  0  0  0  0  0  0  0  0  0  0  0
   27.8830    9.7800   21.2080 C   0  0  0  0  0  0  0  0  0  0  0  0
   27.3000   10.8010   20.4650 C   0  0  0  0  0  0  0  0  0  0  0  0
   28.0930   11.9190   20.2200 C   0  0  0  0  0  0  0  0  0  0  0  0
   29.3850   11.9780   20.7130 C   0  0  0  0  0  0  0  0  0  0  0  0
    0.0000    0.0000    0.0000 H   0  0  0  0  0  0  0  0  0  0  0  0
    0.0000    0.0000    0.0000 H   0  0  0  0  0  0  0  0  0  0  0  0
    0.0000    0.0000    0.0000 H   0  0  0  0  0  0  0  0  0  0  0  0
    0.0000    0.0000    0.0000 H   0  0  0  0  0  0  0  0  0  0  0  0
    0.0000    0.0000    0.0000 H   0  0  0  0  0  0  0  0  0  0  0  0
    0.0000    0.0000    0.0000 H   0  0  0  0  0  0  0  0  0  0  0  0
    0.0000    0.0000    0.0000 H   0  0  0  0  0  0  0  0  0  0  0  0
    0.0000    0.0000    0.0000 H   0  0  0  0  0  0  0  0  0  0  0  0
    0.0000    0.0000    0.0000 H   0  0  0  0  0  0  0  0  0  0  0  0
    0.0000    0.0000    0.0000 H   0  0  0  0  0  0  0  0  0  0  0  0
    0.0000    0.0000    0.0000 H   0  0  0  0  0  0  0  0  0  0  0  0
    0.0000    0.0000    0.0000 H   0  0  0  0  0  0  0  0  0  0  0  0
    0.0000    0.0000    0.0000 H   0  0  0  0  0  0  0  0  0  0  0  0
   10.9031    5.2068   10.5234 C   0  0  0  0  0  0  0  0  0  0  0  0
   11.3947    4.4629    9.3319 C   0  0  0  0  0  0  0  0  0  0  0  0
   12.5941    4.2203    9.1018 O   0  0  0  0  0  0  0  0  0  0  0  0
   10.4302    3.9974    8.3924 N   0  0  0  0  0  0  0  0  0  0  0  0
   10.7802    3.2623    7.1944 C   0  0  0  0  0  0  0  0  0  0  0  0
   10.2563    6.0294   10.1192 H   0  0  0  0  0  0  0  0  0  0  0  0
   10.1734    4.5264   11.0455 H   0  0  0  0  0  0  0  0  0  0  0  0
    9.4154    4.1824    8.5526 H   0  0  0  0  0  0  0  0  0  0  0  0
   11.8549    3.2246    6.9979 H   0  0  0  0  0  0  0  0  0  0  0  0
   10.2755    3.7819    6.3334 H   0  0  0  0  0  0  0  0  0  0  0  0
   10.3934    2.2300    7.3285 H   0  0  0  0  0  0  0  0  0  0  0  0
  1  3  2  0
  1  4  1  0
  2  4  1  0
  1  5  1  0
  2  6  1  0
  5  6  1  0
  6  7  2  3
  5  8  1  0
  4 10  1  0
 10 11  2  0
 11 12  1  0
 12 13  2  0
 13 14  1  0
 10 15  1  0
 14 15  2  0
  9 16  2  0
  9 17  1  0
 14 18  1  0
 17 18  2  0
 18 19  1  0
 16 20  1  0
 19 20  2  0
  2 21  1  0
  7 22  1  0
  8 23  1  0
  8 24  1  0
  8 25  1  0
 11 26  1  0
 12 27  1  0
 13 28  1  0
 15 29  1  0
 16 30  1  0
 17 31  1  0
 19 32  1  0
 20 33  1  0
 34 35  1  0
 35 36  2  0
 35 37  1  0
 37 38  1  0
 34 39  1  0
 34 40  1  0
 37 41  1  0
 38 42  1  0
 38 43  1  0
 38 44  1  0
  4 34  1  6
M  END
>  <attachment_point>  (313) 
21

>  <score>  (313) 
<NA>

$$$$
4djw
     RDKit          3D

 47 50  0  0  0  0  0  0  0  0999 V2000
   22.4950   11.8750   22.5810 C   0  0  0  0  0  0  0  0  0  0  0  0
   22.5380    9.4930   22.4640 N   0  0  0  0  0  0  0  0  0  0  0  0
   22.3600   13.0630   22.3480 O   0  0  0  0  0  0  0  0  0  0  0  0
   22.3390   10.6680   21.5610 C   0  0  2  0  0  0  0  0  0  0  0  0
   22.7860   11.3350   23.8120 N   0  0  0  0  0  0  0  0  0  0  0  0
   22.7800    9.9140   23.7010 C   0  0  0  0  0  0  0  0  0  0  0  0
   22.9970    9.1110   24.7490 N   0  0  0  0  0  0  0  0  0  0  0  0
   23.0220   12.1410   25.0180 C   0  0  0  0  0  0  0  0  0  0  0  0
   29.1260    9.8230   21.7090 N   0  0  0  0  0  0  0  0  0  0  0  0
   23.4880   10.6920   20.5300 C   0  0  0  0  0  0  0  0  0  0  0  0
   23.2110   10.7890   19.1730 C   0  0  0  0  0  0  0  0  0  0  0  0
   24.2350   10.8650   18.2430 C   0  0  0  0  0  0  0  0  0  0  0  0
   25.5500   10.8410   18.6560 C   0  0  0  0  0  0  0  0  0  0  0  0
   25.8710   10.7460   20.0070 C   0  0  0  0  0  0  0  0  0  0  0  0
   24.8260   10.6610   20.9430 C   0  0  0  0  0  0  0  0  0  0  0  0
   29.8540   10.9130   21.4510 C   0  0  0  0  0  0  0  0  0  0  0  0
   27.8830    9.7800   21.2080 C   0  0  0  0  0  0  0  0  0  0  0  0
   27.3000   10.8010   20.4650 C   0  0  0  0  0  0  0  0  0  0  0  0
   28.0930   11.9190   20.2200 C   0  0  0  0  0  0  0  0  0  0  0  0
   29.3850   11.9780   20.7130 C   0  0  0  0  0  0  0  0  0  0  0  0
    0.0000    0.0000    0.0000 H   0  0  0  0  0  0  0  0  0  0  0  0
    0.0000    0.0000    0.0000 H   0  0  0  0  0  0  0  0  0  0  0  0
    0.0000    0.0000    0.0000 H   0  0  0  0  0  0  0  0  0  0  0  0
    0.0000    0.0000    0.0000 H   0  0  0  0  0  0  0  0  0  0  0  0
    0.0000    0.0000    0.0000 H   0  0  0  0  0  0  0  0  0  0  0  0
    0.0000    0.0000    0.0000 H   0  0  0  0  0  0  0  0  0  0  0  0
    0.0000    0.0000    0.0000 H   0  0  0  0  0  0  0  0  0  0  0  0
    0.0000    0.0000    0.0000 H   0  0  0  0  0  0  0  0  0  0  0  0
    0.0000    0.0000    0.0000 H   0  0  0  0  0  0  0  0  0  0  0  0
    0.0000    0.0000    0.0000 H   0  0  0  0  0  0  0  0  0  0  0  0
    0.0000    0.0000    0.0000 H   0  0  0  0  0  0  0  0  0  0  0  0
    0.0000    0.0000    0.0000 H   0  0  0  0  0  0  0  0  0  0  0  0
    0.0000    0.0000    0.0000 H   0  0  0  0  0  0  0  0  0  0  0  0
   10.8533    5.1830   10.4754 N   0  0  0  0  0  0  0  0  0  0  0  0
   10.4823    6.0062    9.4226 C   0  0  0  0  0  0  0  0  0  0  0  0
   11.0463    7.1485    9.3606 O   0  0  0  0  0  0  0  0  0  0  0  0
    9.5070    5.6513    8.4043 C   0  0  0  0  0  0  0  0  0  0  0  0
    9.2348    6.5669    7.4156 C   0  0  0  0  0  0  0  0  0  0  0  0
    8.3079    6.2937    6.4033 C   0  0  0  0  0  0  0  0  0  0  0  0
    7.6471    5.0843    6.3864 C   0  0  0  0  0  0  0  0  0  0  0  0
    7.9500    4.1951    7.3968 C   0  0  0  0  0  0  0  0  0  0  0  0
    8.8567    4.4767    8.3770 N   0  0  0  0  0  0  0  0  0  0  0  0
   10.4658    4.2542   10.6181 H   0  0  0  0  0  0  0  0  0  0  0  0
    9.7335    7.5339    7.3907 H   0  0  0  0  0  0  0  0  0  0  0  0
    8.0814    7.0016    5.6180 H   0  0  0  0  0  0  0  0  0  0  0  0
    6.9186    4.8209    5.6247 H   0  0  0  0  0  0  0  0  0  0  0  0
    7.4777    3.2199    7.4616 H   0  0  0  0  0  0  0  0  0  0  0  0
  1  3  2  0
  1  4  1  0
  2  4  1  0
  1  5  1  0
  2  6  1  0
  5  6  1  0
  6  7  2  3
  5  8  1  0
  4 10  1  0
 10 11  2  0
 11 12  1  0
 12 13  2  0
 13 14  1  0
 10 15  1  0
 14 15  2  0
  9 16  2  0
  9 17  1  0
 14 18  1  0
 17 18  2  0
 18 19  1  0
 16 20  1  0
 19 20  2  0
  2 21  1  0
  7 22  1  0
  8 23  1  0
  8 24  1  0
  8 25  1  0
 11 26  1  0
 12 27  1  0
 13 28  1  0
 15 29  1  0
 16 30  1  0
 17 31  1  0
 19 32  1  0
 20 33  1  0
 34 35  1  0
 35 36  2  0
 35 37  1  0
 37 38  2  0
 38 39  1  0
 39 40  2  0
 40 41  1  0
 41 42  2  0
 42 37  1  0
 34 43  1  0
 38 44  1  0
 39 45  1  0
 40 46  1  0
 41 47  1  0
  4 34  1  6
M  END
>  <attachment_point>  (314) 
21

>  <score>  (314) 
<NA>

$$$$
4djw
     RDKit          3D

 44 47  0  0  0  0  0  0  0  0999 V2000
   22.4950   11.8750   22.5810 C   0  0  0  0  0  0  0  0  0  0  0  0
   22.5380    9.4930   22.4640 N   0  0  0  0  0  0  0  0  0  0  0  0
   22.3600   13.0630   22.3480 O   0  0  0  0  0  0  0  0  0  0  0  0
   22.3390   10.6680   21.5610 C   0  0  2  0  0  0  0  0  0  0  0  0
   22.7860   11.3350   23.8120 N   0  0  0  0  0  0  0  0  0  0  0  0
   22.7800    9.9140   23.7010 C   0  0  0  0  0  0  0  0  0  0  0  0
   22.9970    9.1110   24.7490 N   0  0  0  0  0  0  0  0  0  0  0  0
   23.0220   12.1410   25.0180 C   0  0  0  0  0  0  0  0  0  0  0  0
   29.1260    9.8230   21.7090 N   0  0  0  0  0  0  0  0  0  0  0  0
   23.4880   10.6920   20.5300 C   0  0  0  0  0  0  0  0  0  0  0  0
   23.2110   10.7890   19.1730 C   0  0  0  0  0  0  0  0  0  0  0  0
   24.2350   10.8650   18.2430 C   0  0  0  0  0  0  0  0  0  0  0  0
   25.5500   10.8410   18.6560 C   0  0  0  0  0  0  0  0  0  0  0  0
   25.8710   10.7460   20.0070 C   0  0  0  0  0  0  0  0  0  0  0  0
   24.8260   10.6610   20.9430 C   0  0  0  0  0  0  0  0  0  0  0  0
   29.8540   10.9130   21.4510 C   0  0  0  0  0  0  0  0  0  0  0  0
   27.8830    9.7800   21.2080 C   0  0  0  0  0  0  0  0  0  0  0  0
   27.3000   10.8010   20.4650 C   0  0  0  0  0  0  0  0  0  0  0  0
   28.0930   11.9190   20.2200 C   0  0  0  0  0  0  0  0  0  0  0  0
   29.3850   11.9780   20.7130 C   0  0  0  0  0  0  0  0  0  0  0  0
    0.0000    0.0000    0.0000 H   0  0  0  0  0  0  0  0  0  0  0  0
    0.0000    0.0000    0.0000 H   0  0  0  0  0  0  0  0  0  0  0  0
    0.0000    0.0000    0.0000 H   0  0  0  0  0  0  0  0  0  0  0  0
    0.0000    0.0000    0.0000 H   0  0  0  0  0  0  0  0  0  0  0  0
    0.0000    0.0000    0.0000 H   0  0  0  0  0  0  0  0  0  0  0  0
    0.0000    0.0000    0.0000 H   0  0  0  0  0  0  0  0  0  0  0  0
    0.0000    0.0000    0.0000 H   0  0  0  0  0  0  0  0  0  0  0  0
    0.0000    0.0000    0.0000 H   0  0  0  0  0  0  0  0  0  0  0  0
    0.0000    0.0000    0.0000 H   0  0  0  0  0  0  0  0  0  0  0  0
    0.0000    0.0000    0.0000 H   0  0  0  0  0  0  0  0  0  0  0  0
    0.0000    0.0000    0.0000 H   0  0  0  0  0  0  0  0  0  0  0  0
    0.0000    0.0000    0.0000 H   0  0  0  0  0  0  0  0  0  0  0  0
    0.0000    0.0000    0.0000 H   0  0  0  0  0  0  0  0  0  0  0  0
   10.8449    5.1790   10.4672 O   0  0  0  0  0  0  0  0  0  0  0  0
    9.6643    4.9208   11.1805 C   0  0  0  0  0  0  0  0  0  0  0  0
    8.6900    5.8574   11.3616 C   0  0  0  0  0  0  0  0  0  0  0  0
    7.5408    5.5682   12.0694 C   0  0  0  0  0  0  0  0  0  0  0  0
    7.4035    4.3006   12.5910 C   0  0  0  0  0  0  0  0  0  0  0  0
    8.3645    3.3889   12.4080 N   0  0  0  0  0  0  0  0  0  0  0  0
    9.4803    3.6668   11.7219 C   0  0  0  0  0  0  0  0  0  0  0  0
    8.8524    6.8424   10.9270 H   0  0  0  0  0  0  0  0  0  0  0  0
    6.7752    6.3303   12.2025 H   0  0  0  0  0  0  0  0  0  0  0  0
    6.4845    4.0745   13.1551 H   0  0  0  0  0  0  0  0  0  0  0  0
   10.2751    2.9262   11.5658 H   0  0  0  0  0  0  0  0  0  0  0  0
  1  3  2  0
  1  4  1  0
  2  4  1  0
  1  5  1  0
  2  6  1  0
  5  6  1  0
  6  7  2  3
  5  8  1  0
  4 10  1  0
 10 11  2  0
 11 12  1  0
 12 13  2  0
 13 14  1  0
 10 15  1  0
 14 15  2  0
  9 16  2  0
  9 17  1  0
 14 18  1  0
 17 18  2  0
 18 19  1  0
 16 20  1  0
 19 20  2  0
  2 21  1  0
  7 22  1  0
  8 23  1  0
  8 24  1  0
  8 25  1  0
 11 26  1  0
 12 27  1  0
 13 28  1  0
 15 29  1  0
 16 30  1  0
 17 31  1  0
 19 32  1  0
 20 33  1  0
 34 35  1  0
 35 36  2  0
 36 37  1  0
 37 38  2  0
 38 39  1  0
 39 40  2  0
 40 35  1  0
 36 41  1  0
 37 42  1  0
 38 43  1  0
 40 44  1  0
  4 34  1  6
M  END
>  <attachment_point>  (315) 
21

>  <score>  (315) 
<NA>

$$$$
4djw
     RDKit          3D

 38 40  0  0  0  0  0  0  0  0999 V2000
   22.4950   11.8750   22.5810 C   0  0  0  0  0  0  0  0  0  0  0  0
   22.5380    9.4930   22.4640 N   0  0  0  0  0  0  0  0  0  0  0  0
   22.3600   13.0630   22.3480 O   0  0  0  0  0  0  0  0  0  0  0  0
   22.3390   10.6680   21.5610 C   0  0  2  0  0  0  0  0  0  0  0  0
   22.7860   11.3350   23.8120 N   0  0  0  0  0  0  0  0  0  0  0  0
   22.7800    9.9140   23.7010 C   0  0  0  0  0  0  0  0  0  0  0  0
   22.9970    9.1110   24.7490 N   0  0  0  0  0  0  0  0  0  0  0  0
   23.0220   12.1410   25.0180 C   0  0  0  0  0  0  0  0  0  0  0  0
   29.1260    9.8230   21.7090 N   0  0  0  0  0  0  0  0  0  0  0  0
   23.4880   10.6920   20.5300 C   0  0  0  0  0  0  0  0  0  0  0  0
   23.2110   10.7890   19.1730 C   0  0  0  0  0  0  0  0  0  0  0  0
   24.2350   10.8650   18.2430 C   0  0  0  0  0  0  0  0  0  0  0  0
   25.5500   10.8410   18.6560 C   0  0  0  0  0  0  0  0  0  0  0  0
   25.8710   10.7460   20.0070 C   0  0  0  0  0  0  0  0  0  0  0  0
   24.8260   10.6610   20.9430 C   0  0  0  0  0  0  0  0  0  0  0  0
   29.8540   10.9130   21.4510 C   0  0  0  0  0  0  0  0  0  0  0  0
   27.8830    9.7800   21.2080 C   0  0  0  0  0  0  0  0  0  0  0  0
   27.3000   10.8010   20.4650 C   0  0  0  0  0  0  0  0  0  0  0  0
   28.0930   11.9190   20.2200 C   0  0  0  0  0  0  0  0  0  0  0  0
   29.3850   11.9780   20.7130 C   0  0  0  0  0  0  0  0  0  0  0  0
    0.0000    0.0000    0.0000 H   0  0  0  0  0  0  0  0  0  0  0  0
    0.0000    0.0000    0.0000 H   0  0  0  0  0  0  0  0  0  0  0  0
    0.0000    0.0000    0.0000 H   0  0  0  0  0  0  0  0  0  0  0  0
    0.0000    0.0000    0.0000 H   0  0  0  0  0  0  0  0  0  0  0  0
    0.0000    0.0000    0.0000 H   0  0  0  0  0  0  0  0  0  0  0  0
    0.0000    0.0000    0.0000 H   0  0  0  0  0  0  0  0  0  0  0  0
    0.0000    0.0000    0.0000 H   0  0  0  0  0  0  0  0  0  0  0  0
    0.0000    0.0000    0.0000 H   0  0  0  0  0  0  0  0  0  0  0  0
    0.0000    0.0000    0.0000 H   0  0  0  0  0  0  0  0  0  0  0  0
    0.0000    0.0000    0.0000 H   0  0  0  0  0  0  0  0  0  0  0  0
    0.0000    0.0000    0.0000 H   0  0  0  0  0  0  0  0  0  0  0  0
    0.0000    0.0000    0.0000 H   0  0  0  0  0  0  0  0  0  0  0  0
    0.0000    0.0000    0.0000 H   0  0  0  0  0  0  0  0  0  0  0  0
   10.7381    5.1280   10.3641 C   0  0  0  0  0  0  0  0  0  0  0  0
    9.3476    5.6393   11.2851 S   0  0  0  0  0  0  0  0  0  0  0  0
   11.1520    4.1488   10.5089 H   0  0  0  0  0  0  0  0  0  0  0  0
   11.1732    5.7813    9.6347 H   0  0  0  0  0  0  0  0  0  0  0  0
    8.5340    4.5334   11.6376 H   0  0  0  0  0  0  0  0  0  0  0  0
  1  3  2  0
  1  4  1  0
  2  4  1  0
  1  5  1  0
  2  6  1  0
  5  6  1  0
  6  7  2  3
  5  8  1  0
  4 10  1  0
 10 11  2  0
 11 12  1  0
 12 13  2  0
 13 14  1  0
 10 15  1  0
 14 15  2  0
  9 16  2  0
  9 17  1  0
 14 18  1  0
 17 18  2  0
 18 19  1  0
 16 20  1  0
 19 20  2  0
  2 21  1  0
  7 22  1  0
  8 23  1  0
  8 24  1  0
  8 25  1  0
 11 26  1  0
 12 27  1  0
 13 28  1  0
 15 29  1  0
 16 30  1  0
 17 31  1  0
 19 32  1  0
 20 33  1  0
 34 35  1  0
 34 36  1  0
 34 37  1  0
 35 38  1  0
  4 34  1  6
M  END
>  <attachment_point>  (316) 
21

>  <score>  (316) 
<NA>

$$$$
4djw
     RDKit          3D

 45 48  0  0  0  0  0  0  0  0999 V2000
   22.4950   11.8750   22.5810 C   0  0  0  0  0  0  0  0  0  0  0  0
   22.5380    9.4930   22.4640 N   0  0  0  0  0  0  0  0  0  0  0  0
   22.3600   13.0630   22.3480 O   0  0  0  0  0  0  0  0  0  0  0  0
   22.3390   10.6680   21.5610 C   0  0  2  0  0  0  0  0  0  0  0  0
   22.7860   11.3350   23.8120 N   0  0  0  0  0  0  0  0  0  0  0  0
   22.7800    9.9140   23.7010 C   0  0  0  0  0  0  0  0  0  0  0  0
   22.9970    9.1110   24.7490 N   0  0  0  0  0  0  0  0  0  0  0  0
   23.0220   12.1410   25.0180 C   0  0  0  0  0  0  0  0  0  0  0  0
   29.1260    9.8230   21.7090 N   0  0  0  0  0  0  0  0  0  0  0  0
   23.4880   10.6920   20.5300 C   0  0  0  0  0  0  0  0  0  0  0  0
   23.2110   10.7890   19.1730 C   0  0  0  0  0  0  0  0  0  0  0  0
   24.2350   10.8650   18.2430 C   0  0  0  0  0  0  0  0  0  0  0  0
   25.5500   10.8410   18.6560 C   0  0  0  0  0  0  0  0  0  0  0  0
   25.8710   10.7460   20.0070 C   0  0  0  0  0  0  0  0  0  0  0  0
   24.8260   10.6610   20.9430 C   0  0  0  0  0  0  0  0  0  0  0  0
   29.8540   10.9130   21.4510 C   0  0  0  0  0  0  0  0  0  0  0  0
   27.8830    9.7800   21.2080 C   0  0  0  0  0  0  0  0  0  0  0  0
   27.3000   10.8010   20.4650 C   0  0  0  0  0  0  0  0  0  0  0  0
   28.0930   11.9190   20.2200 C   0  0  0  0  0  0  0  0  0  0  0  0
   29.3850   11.9780   20.7130 C   0  0  0  0  0  0  0  0  0  0  0  0
    0.0000    0.0000    0.0000 H   0  0  0  0  0  0  0  0  0  0  0  0
    0.0000    0.0000    0.0000 H   0  0  0  0  0  0  0  0  0  0  0  0
    0.0000    0.0000    0.0000 H   0  0  0  0  0  0  0  0  0  0  0  0
    0.0000    0.0000    0.0000 H   0  0  0  0  0  0  0  0  0  0  0  0
    0.0000    0.0000    0.0000 H   0  0  0  0  0  0  0  0  0  0  0  0
    0.0000    0.0000    0.0000 H   0  0  0  0  0  0  0  0  0  0  0  0
    0.0000    0.0000    0.0000 H   0  0  0  0  0  0  0  0  0  0  0  0
    0.0000    0.0000    0.0000 H   0  0  0  0  0  0  0  0  0  0  0  0
    0.0000    0.0000    0.0000 H   0  0  0  0  0  0  0  0  0  0  0  0
    0.0000    0.0000    0.0000 H   0  0  0  0  0  0  0  0  0  0  0  0
    0.0000    0.0000    0.0000 H   0  0  0  0  0  0  0  0  0  0  0  0
    0.0000    0.0000    0.0000 H   0  0  0  0  0  0  0  0  0  0  0  0
    0.0000    0.0000    0.0000 H   0  0  0  0  0  0  0  0  0  0  0  0
   10.8656    5.1889   10.4872 O   0  0  0  0  0  0  0  0  0  0  0  0
   11.1932    3.8134   10.3827 C   0  0  0  0  0  0  0  0  0  0  0  0
   10.2377    3.2119    9.4200 C   0  0  0  0  0  0  0  0  0  0  0  0
   10.2890    3.8306    8.0241 C   0  0  0  0  0  0  0  0  0  0  0  0
   10.6457    2.4021    8.2620 C   0  0  0  0  0  0  0  0  0  0  0  0
   12.2489    3.8158   10.0278 H   0  0  0  0  0  0  0  0  0  0  0  0
   11.2018    3.3392   11.3749 H   0  0  0  0  0  0  0  0  0  0  0  0
    9.2354    2.9808    9.8517 H   0  0  0  0  0  0  0  0  0  0  0  0
    9.3063    4.1310    7.6401 H   0  0  0  0  0  0  0  0  0  0  0  0
   11.1073    4.5029    7.7682 H   0  0  0  0  0  0  0  0  0  0  0  0
    9.9068    1.6781    7.8435 H   0  0  0  0  0  0  0  0  0  0  0  0
   11.6876    2.0731    8.1104 H   0  0  0  0  0  0  0  0  0  0  0  0
  1  3  2  0
  1  4  1  0
  2  4  1  0
  1  5  1  0
  2  6  1  0
  5  6  1  0
  6  7  2  3
  5  8  1  0
  4 10  1  0
 10 11  2  0
 11 12  1  0
 12 13  2  0
 13 14  1  0
 10 15  1  0
 14 15  2  0
  9 16  2  0
  9 17  1  0
 14 18  1  0
 17 18  2  0
 18 19  1  0
 16 20  1  0
 19 20  2  0
  2 21  1  0
  7 22  1  0
  8 23  1  0
  8 24  1  0
  8 25  1  0
 11 26  1  0
 12 27  1  0
 13 28  1  0
 15 29  1  0
 16 30  1  0
 17 31  1  0
 19 32  1  0
 20 33  1  0
 34 35  1  0
 35 36  1  0
 36 37  1  0
 37 38  1  0
 38 36  1  0
 35 39  1  0
 35 40  1  0
 36 41  1  0
 37 42  1  0
 37 43  1  0
 38 44  1  0
 38 45  1  0
  4 34  1  6
M  END
>  <attachment_point>  (317) 
21

>  <score>  (317) 
<NA>

$$$$
4djw
     RDKit          3D

 47 49  0  0  0  0  0  0  0  0999 V2000
   22.4950   11.8750   22.5810 C   0  0  0  0  0  0  0  0  0  0  0  0
   22.5380    9.4930   22.4640 N   0  0  0  0  0  0  0  0  0  0  0  0
   22.3600   13.0630   22.3480 O   0  0  0  0  0  0  0  0  0  0  0  0
   22.3390   10.6680   21.5610 C   0  0  2  0  0  0  0  0  0  0  0  0
   22.7860   11.3350   23.8120 N   0  0  0  0  0  0  0  0  0  0  0  0
   22.7800    9.9140   23.7010 C   0  0  0  0  0  0  0  0  0  0  0  0
   22.9970    9.1110   24.7490 N   0  0  0  0  0  0  0  0  0  0  0  0
   23.0220   12.1410   25.0180 C   0  0  0  0  0  0  0  0  0  0  0  0
   29.1260    9.8230   21.7090 N   0  0  0  0  0  0  0  0  0  0  0  0
   23.4880   10.6920   20.5300 C   0  0  0  0  0  0  0  0  0  0  0  0
   23.2110   10.7890   19.1730 C   0  0  0  0  0  0  0  0  0  0  0  0
   24.2350   10.8650   18.2430 C   0  0  0  0  0  0  0  0  0  0  0  0
   25.5500   10.8410   18.6560 C   0  0  0  0  0  0  0  0  0  0  0  0
   25.8710   10.7460   20.0070 C   0  0  0  0  0  0  0  0  0  0  0  0
   24.8260   10.6610   20.9430 C   0  0  0  0  0  0  0  0  0  0  0  0
   29.8540   10.9130   21.4510 C   0  0  0  0  0  0  0  0  0  0  0  0
   27.8830    9.7800   21.2080 C   0  0  0  0  0  0  0  0  0  0  0  0
   27.3000   10.8010   20.4650 C   0  0  0  0  0  0  0  0  0  0  0  0
   28.0930   11.9190   20.2200 C   0  0  0  0  0  0  0  0  0  0  0  0
   29.3850   11.9780   20.7130 C   0  0  0  0  0  0  0  0  0  0  0  0
    0.0000    0.0000    0.0000 H   0  0  0  0  0  0  0  0  0  0  0  0
    0.0000    0.0000    0.0000 H   0  0  0  0  0  0  0  0  0  0  0  0
    0.0000    0.0000    0.0000 H   0  0  0  0  0  0  0  0  0  0  0  0
    0.0000    0.0000    0.0000 H   0  0  0  0  0  0  0  0  0  0  0  0
    0.0000    0.0000    0.0000 H   0  0  0  0  0  0  0  0  0  0  0  0
    0.0000    0.0000    0.0000 H   0  0  0  0  0  0  0  0  0  0  0  0
    0.0000    0.0000    0.0000 H   0  0  0  0  0  0  0  0  0  0  0  0
    0.0000    0.0000    0.0000 H   0  0  0  0  0  0  0  0  0  0  0  0
    0.0000    0.0000    0.0000 H   0  0  0  0  0  0  0  0  0  0  0  0
    0.0000    0.0000    0.0000 H   0  0  0  0  0  0  0  0  0  0  0  0
    0.0000    0.0000    0.0000 H   0  0  0  0  0  0  0  0  0  0  0  0
    0.0000    0.0000    0.0000 H   0  0  0  0  0  0  0  0  0  0  0  0
    0.0000    0.0000    0.0000 H   0  0  0  0  0  0  0  0  0  0  0  0
   10.9272    5.2183   10.5466 O   0  0  0  0  0  0  0  0  0  0  0  0
   10.4844    3.9156   10.5745 C   0  0  0  0  0  0  0  0  0  0  0  0
    9.4612    3.6704    9.4869 C   0  0  0  0  0  0  0  0  0  0  0  0
    9.0198    2.2379    9.5703 C   0  0  0  0  0  0  0  0  0  0  0  0
    8.3333    4.6507    9.5036 C   0  0  0  0  0  0  0  0  0  0  0  0
   10.1474    3.5704   11.5662 H   0  0  0  0  0  0  0  0  0  0  0  0
   11.3601    3.2512   10.3104 H   0  0  0  0  0  0  0  0  0  0  0  0
   10.0059    3.8055    8.5169 H   0  0  0  0  0  0  0  0  0  0  0  0
    9.7246    1.6115    8.9597 H   0  0  0  0  0  0  0  0  0  0  0  0
    9.0984    1.9134   10.6354 H   0  0  0  0  0  0  0  0  0  0  0  0
    7.9830    2.1107    9.2573 H   0  0  0  0  0  0  0  0  0  0  0  0
    7.5199    4.4003   10.2058 H   0  0  0  0  0  0  0  0  0  0  0  0
    8.7339    5.6627    9.6911 H   0  0  0  0  0  0  0  0  0  0  0  0
    7.9328    4.6902    8.4476 H   0  0  0  0  0  0  0  0  0  0  0  0
  1  3  2  0
  1  4  1  0
  2  4  1  0
  1  5  1  0
  2  6  1  0
  5  6  1  0
  6  7  2  3
  5  8  1  0
  4 10  1  0
 10 11  2  0
 11 12  1  0
 12 13  2  0
 13 14  1  0
 10 15  1  0
 14 15  2  0
  9 16  2  0
  9 17  1  0
 14 18  1  0
 17 18  2  0
 18 19  1  0
 16 20  1  0
 19 20  2  0
  2 21  1  0
  7 22  1  0
  8 23  1  0
  8 24  1  0
  8 25  1  0
 11 26  1  0
 12 27  1  0
 13 28  1  0
 15 29  1  0
 16 30  1  0
 17 31  1  0
 19 32  1  0
 20 33  1  0
 34 35  1  0
 35 36  1  0
 36 37  1  0
 36 38  1  0
 35 39  1  0
 35 40  1  0
 36 41  1  0
 37 42  1  0
 37 43  1  0
 37 44  1  0
 38 45  1  0
 38 46  1  0
 38 47  1  0
  4 34  1  6
M  END
>  <attachment_point>  (318) 
21

>  <score>  (318) 
<NA>

$$$$
4djw
     RDKit          3D

 45 47  0  0  0  0  0  0  0  0999 V2000
   22.4950   11.8750   22.5810 C   0  0  0  0  0  0  0  0  0  0  0  0
   22.5380    9.4930   22.4640 N   0  0  0  0  0  0  0  0  0  0  0  0
   22.3600   13.0630   22.3480 O   0  0  0  0  0  0  0  0  0  0  0  0
   22.3390   10.6680   21.5610 C   0  0  2  0  0  0  0  0  0  0  0  0
   22.7860   11.3350   23.8120 N   0  0  0  0  0  0  0  0  0  0  0  0
   22.7800    9.9140   23.7010 C   0  0  0  0  0  0  0  0  0  0  0  0
   22.9970    9.1110   24.7490 N   0  0  0  0  0  0  0  0  0  0  0  0
   23.0220   12.1410   25.0180 C   0  0  0  0  0  0  0  0  0  0  0  0
   29.1260    9.8230   21.7090 N   0  0  0  0  0  0  0  0  0  0  0  0
   23.4880   10.6920   20.5300 C   0  0  0  0  0  0  0  0  0  0  0  0
   23.2110   10.7890   19.1730 C   0  0  0  0  0  0  0  0  0  0  0  0
   24.2350   10.8650   18.2430 C   0  0  0  0  0  0  0  0  0  0  0  0
   25.5500   10.8410   18.6560 C   0  0  0  0  0  0  0  0  0  0  0  0
   25.8710   10.7460   20.0070 C   0  0  0  0  0  0  0  0  0  0  0  0
   24.8260   10.6610   20.9430 C   0  0  0  0  0  0  0  0  0  0  0  0
   29.8540   10.9130   21.4510 C   0  0  0  0  0  0  0  0  0  0  0  0
   27.8830    9.7800   21.2080 C   0  0  0  0  0  0  0  0  0  0  0  0
   27.3000   10.8010   20.4650 C   0  0  0  0  0  0  0  0  0  0  0  0
   28.0930   11.9190   20.2200 C   0  0  0  0  0  0  0  0  0  0  0  0
   29.3850   11.9780   20.7130 C   0  0  0  0  0  0  0  0  0  0  0  0
    0.0000    0.0000    0.0000 H   0  0  0  0  0  0  0  0  0  0  0  0
    0.0000    0.0000    0.0000 H   0  0  0  0  0  0  0  0  0  0  0  0
    0.0000    0.0000    0.0000 H   0  0  0  0  0  0  0  0  0  0  0  0
    0.0000    0.0000    0.0000 H   0  0  0  0  0  0  0  0  0  0  0  0
    0.0000    0.0000    0.0000 H   0  0  0  0  0  0  0  0  0  0  0  0
    0.0000    0.0000    0.0000 H   0  0  0  0  0  0  0  0  0  0  0  0
    0.0000    0.0000    0.0000 H   0  0  0  0  0  0  0  0  0  0  0  0
    0.0000    0.0000    0.0000 H   0  0  0  0  0  0  0  0  0  0  0  0
    0.0000    0.0000    0.0000 H   0  0  0  0  0  0  0  0  0  0  0  0
    0.0000    0.0000    0.0000 H   0  0  0  0  0  0  0  0  0  0  0  0
    0.0000    0.0000    0.0000 H   0  0  0  0  0  0  0  0  0  0  0  0
    0.0000    0.0000    0.0000 H   0  0  0  0  0  0  0  0  0  0  0  0
    0.0000    0.0000    0.0000 H   0  0  0  0  0  0  0  0  0  0  0  0
   10.8991    5.2049   10.5195 N   0  0  0  0  0  0  0  0  0  0  0  0
   11.1451    3.9293    9.9038 C   0  0  0  0  0  0  0  0  0  0  0  0
   12.1798    3.2802   10.2023 O   0  0  0  0  0  0  0  0  0  0  0  0
   10.2646    3.4041    8.9899 O   0  0  0  0  0  0  0  0  0  0  0  0
   10.4324    2.1629    8.3425 C   0  0  0  0  0  0  0  0  0  0  0  0
   11.6719    2.0643    7.5280 C   0  0  0  0  0  0  0  0  0  0  0  0
   10.0268    5.7214   10.2490 H   0  0  0  0  0  0  0  0  0  0  0  0
   10.3560    1.2995    9.0587 H   0  0  0  0  0  0  0  0  0  0  0  0
    9.5570    2.0315    7.6486 H   0  0  0  0  0  0  0  0  0  0  0  0
   11.4663    2.0189    6.4178 H   0  0  0  0  0  0  0  0  0  0  0  0
   12.2458    1.1126    7.7259 H   0  0  0  0  0  0  0  0  0  0  0  0
   12.3512    2.9165    7.6662 H   0  0  0  0  0  0  0  0  0  0  0  0
  1  3  2  0
  1  4  1  0
  2  4  1  0
  1  5  1  0
  2  6  1  0
  5  6  1  0
  6  7  2  3
  5  8  1  0
  4 10  1  0
 10 11  2  0
 11 12  1  0
 12 13  2  0
 13 14  1  0
 10 15  1  0
 14 15  2  0
  9 16  2  0
  9 17  1  0
 14 18  1  0
 17 18  2  0
 18 19  1  0
 16 20  1  0
 19 20  2  0
  2 21  1  0
  7 22  1  0
  8 23  1  0
  8 24  1  0
  8 25  1  0
 11 26  1  0
 12 27  1  0
 13 28  1  0
 15 29  1  0
 16 30  1  0
 17 31  1  0
 19 32  1  0
 20 33  1  0
 34 35  1  0
 35 36  2  0
 35 37  1  0
 37 38  1  0
 38 39  1  0
 34 40  1  0
 38 41  1  0
 38 42  1  0
 39 43  1  0
 39 44  1  0
 39 45  1  0
  4 34  1  6
M  END
>  <attachment_point>  (319) 
21

>  <score>  (319) 
<NA>

$$$$
4djw
     RDKit          3D

 55 57  0  0  0  0  0  0  0  0999 V2000
   22.4950   11.8750   22.5810 C   0  0  0  0  0  0  0  0  0  0  0  0
   22.5380    9.4930   22.4640 N   0  0  0  0  0  0  0  0  0  0  0  0
   22.3600   13.0630   22.3480 O   0  0  0  0  0  0  0  0  0  0  0  0
   22.3390   10.6680   21.5610 C   0  0  2  0  0  0  0  0  0  0  0  0
   22.7860   11.3350   23.8120 N   0  0  0  0  0  0  0  0  0  0  0  0
   22.7800    9.9140   23.7010 C   0  0  0  0  0  0  0  0  0  0  0  0
   22.9970    9.1110   24.7490 N   0  0  0  0  0  0  0  0  0  0  0  0
   23.0220   12.1410   25.0180 C   0  0  0  0  0  0  0  0  0  0  0  0
   29.1260    9.8230   21.7090 N   0  0  0  0  0  0  0  0  0  0  0  0
   23.4880   10.6920   20.5300 C   0  0  0  0  0  0  0  0  0  0  0  0
   23.2110   10.7890   19.1730 C   0  0  0  0  0  0  0  0  0  0  0  0
   24.2350   10.8650   18.2430 C   0  0  0  0  0  0  0  0  0  0  0  0
   25.5500   10.8410   18.6560 C   0  0  0  0  0  0  0  0  0  0  0  0
   25.8710   10.7460   20.0070 C   0  0  0  0  0  0  0  0  0  0  0  0
   24.8260   10.6610   20.9430 C   0  0  0  0  0  0  0  0  0  0  0  0
   29.8540   10.9130   21.4510 C   0  0  0  0  0  0  0  0  0  0  0  0
   27.8830    9.7800   21.2080 C   0  0  0  0  0  0  0  0  0  0  0  0
   27.3000   10.8010   20.4650 C   0  0  0  0  0  0  0  0  0  0  0  0
   28.0930   11.9190   20.2200 C   0  0  0  0  0  0  0  0  0  0  0  0
   29.3850   11.9780   20.7130 C   0  0  0  0  0  0  0  0  0  0  0  0
    0.0000    0.0000    0.0000 H   0  0  0  0  0  0  0  0  0  0  0  0
    0.0000    0.0000    0.0000 H   0  0  0  0  0  0  0  0  0  0  0  0
    0.0000    0.0000    0.0000 H   0  0  0  0  0  0  0  0  0  0  0  0
    0.0000    0.0000    0.0000 H   0  0  0  0  0  0  0  0  0  0  0  0
    0.0000    0.0000    0.0000 H   0  0  0  0  0  0  0  0  0  0  0  0
    0.0000    0.0000    0.0000 H   0  0  0  0  0  0  0  0  0  0  0  0
    0.0000    0.0000    0.0000 H   0  0  0  0  0  0  0  0  0  0  0  0
    0.0000    0.0000    0.0000 H   0  0  0  0  0  0  0  0  0  0  0  0
    0.0000    0.0000    0.0000 H   0  0  0  0  0  0  0  0  0  0  0  0
    0.0000    0.0000    0.0000 H   0  0  0  0  0  0  0  0  0  0  0  0
    0.0000    0.0000    0.0000 H   0  0  0  0  0  0  0  0  0  0  0  0
    0.0000    0.0000    0.0000 H   0  0  0  0  0  0  0  0  0  0  0  0
    0.0000    0.0000    0.0000 H   0  0  0  0  0  0  0  0  0  0  0  0
   10.8351    5.1743   10.4578 O   0  0  0  0  0  0  0  0  0  0  0  0
   11.2126    6.1308    9.4817 C   0  0  0  0  0  0  0  0  0  0  0  0
   10.3464    5.9257    8.2850 C   0  0  0  0  0  0  0  0  0  0  0  0
    8.9567    6.0773    8.5212 N   0  0  0  0  0  0  0  0  0  0  0  0
    8.4396    7.3198    8.8194 C   0  0  0  0  0  0  0  0  0  0  0  0
    6.9520    7.2539    9.0675 C   0  0  0  0  0  0  0  0  0  0  0  0
    8.1764    4.9280    8.5295 C   0  0  0  0  0  0  0  0  0  0  0  0
    8.0197    4.2207    7.2173 C   0  0  0  0  0  0  0  0  0  0  0  0
   11.2441    7.1349    9.8871 H   0  0  0  0  0  0  0  0  0  0  0  0
   12.2479    5.8502    9.1957 H   0  0  0  0  0  0  0  0  0  0  0  0
   10.6468    6.6678    7.5164 H   0  0  0  0  0  0  0  0  0  0  0  0
   10.5285    4.8927    7.9189 H   0  0  0  0  0  0  0  0  0  0  0  0
    8.5499    8.1114    8.0389 H   0  0  0  0  0  0  0  0  0  0  0  0
    8.8703    7.7799    9.7564 H   0  0  0  0  0  0  0  0  0  0  0  0
    6.5581    8.2966    9.2474 H   0  0  0  0  0  0  0  0  0  0  0  0
    6.3733    6.8332    8.2247 H   0  0  0  0  0  0  0  0  0  0  0  0
    6.7070    6.7215   10.0125 H   0  0  0  0  0  0  0  0  0  0  0  0
    8.6206    4.1918    9.2655 H   0  0  0  0  0  0  0  0  0  0  0  0
    7.1559    5.1219    8.9007 H   0  0  0  0  0  0  0  0  0  0  0  0
    7.6432    3.1726    7.4173 H   0  0  0  0  0  0  0  0  0  0  0  0
    7.2683    4.6838    6.5444 H   0  0  0  0  0  0  0  0  0  0  0  0
    8.9380    4.1129    6.6453 H   0  0  0  0  0  0  0  0  0  0  0  0
  1  3  2  0
  1  4  1  0
  2  4  1  0
  1  5  1  0
  2  6  1  0
  5  6  1  0
  6  7  2  3
  5  8  1  0
  4 10  1  0
 10 11  2  0
 11 12  1  0
 12 13  2  0
 13 14  1  0
 10 15  1  0
 14 15  2  0
  9 16  2  0
  9 17  1  0
 14 18  1  0
 17 18  2  0
 18 19  1  0
 16 20  1  0
 19 20  2  0
  2 21  1  0
  7 22  1  0
  8 23  1  0
  8 24  1  0
  8 25  1  0
 11 26  1  0
 12 27  1  0
 13 28  1  0
 15 29  1  0
 16 30  1  0
 17 31  1  0
 19 32  1  0
 20 33  1  0
 34 35  1  0
 35 36  1  0
 36 37  1  0
 37 38  1  0
 38 39  1  0
 37 40  1  0
 40 41  1  0
 35 42  1  0
 35 43  1  0
 36 44  1  0
 36 45  1  0
 38 46  1  0
 38 47  1  0
 39 48  1  0
 39 49  1  0
 39 50  1  0
 40 51  1  0
 40 52  1  0
 41 53  1  0
 41 54  1  0
 41 55  1  0
  4 34  1  6
M  END
>  <attachment_point>  (320) 
21

>  <score>  (320) 
<NA>

$$$$
4djw
     RDKit          3D

 46 49  0  0  0  0  0  0  0  0999 V2000
   22.4950   11.8750   22.5810 C   0  0  0  0  0  0  0  0  0  0  0  0
   22.5380    9.4930   22.4640 N   0  0  0  0  0  0  0  0  0  0  0  0
   22.3600   13.0630   22.3480 O   0  0  0  0  0  0  0  0  0  0  0  0
   22.3390   10.6680   21.5610 C   0  0  2  0  0  0  0  0  0  0  0  0
   22.7860   11.3350   23.8120 N   0  0  0  0  0  0  0  0  0  0  0  0
   22.7800    9.9140   23.7010 C   0  0  0  0  0  0  0  0  0  0  0  0
   22.9970    9.1110   24.7490 N   0  0  0  0  0  0  0  0  0  0  0  0
   23.0220   12.1410   25.0180 C   0  0  0  0  0  0  0  0  0  0  0  0
   29.1260    9.8230   21.7090 N   0  0  0  0  0  0  0  0  0  0  0  0
   23.4880   10.6920   20.5300 C   0  0  0  0  0  0  0  0  0  0  0  0
   23.2110   10.7890   19.1730 C   0  0  0  0  0  0  0  0  0  0  0  0
   24.2350   10.8650   18.2430 C   0  0  0  0  0  0  0  0  0  0  0  0
   25.5500   10.8410   18.6560 C   0  0  0  0  0  0  0  0  0  0  0  0
   25.8710   10.7460   20.0070 C   0  0  0  0  0  0  0  0  0  0  0  0
   24.8260   10.6610   20.9430 C   0  0  0  0  0  0  0  0  0  0  0  0
   29.8540   10.9130   21.4510 C   0  0  0  0  0  0  0  0  0  0  0  0
   27.8830    9.7800   21.2080 C   0  0  0  0  0  0  0  0  0  0  0  0
   27.3000   10.8010   20.4650 C   0  0  0  0  0  0  0  0  0  0  0  0
   28.0930   11.9190   20.2200 C   0  0  0  0  0  0  0  0  0  0  0  0
   29.3850   11.9780   20.7130 C   0  0  0  0  0  0  0  0  0  0  0  0
    0.0000    0.0000    0.0000 H   0  0  0  0  0  0  0  0  0  0  0  0
    0.0000    0.0000    0.0000 H   0  0  0  0  0  0  0  0  0  0  0  0
    0.0000    0.0000    0.0000 H   0  0  0  0  0  0  0  0  0  0  0  0
    0.0000    0.0000    0.0000 H   0  0  0  0  0  0  0  0  0  0  0  0
    0.0000    0.0000    0.0000 H   0  0  0  0  0  0  0  0  0  0  0  0
    0.0000    0.0000    0.0000 H   0  0  0  0  0  0  0  0  0  0  0  0
    0.0000    0.0000    0.0000 H   0  0  0  0  0  0  0  0  0  0  0  0
    0.0000    0.0000    0.0000 H   0  0  0  0  0  0  0  0  0  0  0  0
    0.0000    0.0000    0.0000 H   0  0  0  0  0  0  0  0  0  0  0  0
    0.0000    0.0000    0.0000 H   0  0  0  0  0  0  0  0  0  0  0  0
    0.0000    0.0000    0.0000 H   0  0  0  0  0  0  0  0  0  0  0  0
    0.0000    0.0000    0.0000 H   0  0  0  0  0  0  0  0  0  0  0  0
    0.0000    0.0000    0.0000 H   0  0  0  0  0  0  0  0  0  0  0  0
   10.8784    5.1950   10.4996 C   0  0  0  0  0  0  0  0  0  0  0  0
   10.9926    3.9357    9.9600 C   0  0  0  0  0  0  0  0  0  0  0  0
   10.0412    3.4793    9.0407 C   0  0  0  0  0  0  0  0  0  0  0  0
    8.9877    4.2843    8.6710 C   0  0  0  0  0  0  0  0  0  0  0  0
    8.0330    3.8590    7.7647 O   0  0  0  0  0  0  0  0  0  0  0  0
    8.8817    5.5429    9.2162 C   0  0  0  0  0  0  0  0  0  0  0  0
    7.8066    6.3280    8.8208 O   0  0  0  0  0  0  0  0  0  0  0  0
    9.8214    6.0208   10.1375 C   0  0  0  0  0  0  0  0  0  0  0  0
   11.8003    3.2723   10.2204 H   0  0  0  0  0  0  0  0  0  0  0  0
   10.1284    2.4884    8.6141 H   0  0  0  0  0  0  0  0  0  0  0  0
    7.0892    4.1998    7.7243 H   0  0  0  0  0  0  0  0  0  0  0  0
    7.8836    6.8995    7.9886 H   0  0  0  0  0  0  0  0  0  0  0  0
    9.7099    7.0156   10.5484 H   0  0  0  0  0  0  0  0  0  0  0  0
  1  3  2  0
  1  4  1  0
  2  4  1  0
  1  5  1  0
  2  6  1  0
  5  6  1  0
  6  7  2  3
  5  8  1  0
  4 10  1  6
 10 11  2  0
 11 12  1  0
 12 13  2  0
 13 14  1  0
 10 15  1  0
 14 15  2  0
  9 16  2  0
  9 17  1  0
 14 18  1  0
 17 18  2  0
 18 19  1  0
 16 20  1  0
 19 20  2  0
  2 21  1  0
  7 22  1  0
  8 23  1  0
  8 24  1  0
  8 25  1  0
 11 26  1  0
 12 27  1  0
 13 28  1  0
 15 29  1  0
 16 30  1  0
 17 31  1  0
 19 32  1  0
 20 33  1  0
 34 35  2  0
 35 36  1  0
 36 37  2  0
 37 38  1  0
 37 39  1  0
 39 40  1  0
 39 41  2  0
 41 34  1  0
 35 42  1  0
 36 43  1  0
 38 44  1  0
 40 45  1  0
 41 46  1  0
  4 34  1  0
M  END
>  <attachment_point>  (321) 
21

>  <score>  (321) 
<NA>

$$$$
4djw
     RDKit          3D

 42 44  0  0  0  0  0  0  0  0999 V2000
   22.4950   11.8750   22.5810 C   0  0  0  0  0  0  0  0  0  0  0  0
   22.5380    9.4930   22.4640 N   0  0  0  0  0  0  0  0  0  0  0  0
   22.3600   13.0630   22.3480 O   0  0  0  0  0  0  0  0  0  0  0  0
   22.3390   10.6680   21.5610 C   0  0  2  0  0  0  0  0  0  0  0  0
   22.7860   11.3350   23.8120 N   0  0  0  0  0  0  0  0  0  0  0  0
   22.7800    9.9140   23.7010 C   0  0  0  0  0  0  0  0  0  0  0  0
   22.9970    9.1110   24.7490 N   0  0  0  0  0  0  0  0  0  0  0  0
   23.0220   12.1410   25.0180 C   0  0  0  0  0  0  0  0  0  0  0  0
   29.1260    9.8230   21.7090 N   0  0  0  0  0  0  0  0  0  0  0  0
   23.4880   10.6920   20.5300 C   0  0  0  0  0  0  0  0  0  0  0  0
   23.2110   10.7890   19.1730 C   0  0  0  0  0  0  0  0  0  0  0  0
   24.2350   10.8650   18.2430 C   0  0  0  0  0  0  0  0  0  0  0  0
   25.5500   10.8410   18.6560 C   0  0  0  0  0  0  0  0  0  0  0  0
   25.8710   10.7460   20.0070 C   0  0  0  0  0  0  0  0  0  0  0  0
   24.8260   10.6610   20.9430 C   0  0  0  0  0  0  0  0  0  0  0  0
   29.8540   10.9130   21.4510 C   0  0  0  0  0  0  0  0  0  0  0  0
   27.8830    9.7800   21.2080 C   0  0  0  0  0  0  0  0  0  0  0  0
   27.3000   10.8010   20.4650 C   0  0  0  0  0  0  0  0  0  0  0  0
   28.0930   11.9190   20.2200 C   0  0  0  0  0  0  0  0  0  0  0  0
   29.3850   11.9780   20.7130 C   0  0  0  0  0  0  0  0  0  0  0  0
    0.0000    0.0000    0.0000 H   0  0  0  0  0  0  0  0  0  0  0  0
    0.0000    0.0000    0.0000 H   0  0  0  0  0  0  0  0  0  0  0  0
    0.0000    0.0000    0.0000 H   0  0  0  0  0  0  0  0  0  0  0  0
    0.0000    0.0000    0.0000 H   0  0  0  0  0  0  0  0  0  0  0  0
    0.0000    0.0000    0.0000 H   0  0  0  0  0  0  0  0  0  0  0  0
    0.0000    0.0000    0.0000 H   0  0  0  0  0  0  0  0  0  0  0  0
    0.0000    0.0000    0.0000 H   0  0  0  0  0  0  0  0  0  0  0  0
    0.0000    0.0000    0.0000 H   0  0  0  0  0  0  0  0  0  0  0  0
    0.0000    0.0000    0.0000 H   0  0  0  0  0  0  0  0  0  0  0  0
    0.0000    0.0000    0.0000 H   0  0  0  0  0  0  0  0  0  0  0  0
    0.0000    0.0000    0.0000 H   0  0  0  0  0  0  0  0  0  0  0  0
    0.0000    0.0000    0.0000 H   0  0  0  0  0  0  0  0  0  0  0  0
    0.0000    0.0000    0.0000 H   0  0  0  0  0  0  0  0  0  0  0  0
   10.8982    5.2045   10.5187 N   0  0  0  0  0  0  0  0  0  0  0  0
   11.3741    4.9556    9.2029 C   0  0  0  0  0  0  0  0  0  0  0  0
   12.5952    5.1416    8.9012 O   0  0  0  0  0  0  0  0  0  0  0  0
   10.4655    4.4811    8.1747 C   0  0  0  0  0  0  0  0  0  0  0  0
   10.8854    4.2434    6.9461 C   0  0  0  0  0  0  0  0  0  0  0  0
    9.8897    5.0495   10.7630 H   0  0  0  0  0  0  0  0  0  0  0  0
    9.4325    4.3161    8.4013 H   0  0  0  0  0  0  0  0  0  0  0  0
   11.9177    4.4064    6.7127 H   0  0  0  0  0  0  0  0  0  0  0  0
   10.2138    3.8905    6.1779 H   0  0  0  0  0  0  0  0  0  0  0  0
  1  3  2  0
  1  4  1  0
  2  4  1  0
  1  5  1  0
  2  6  1  0
  5  6  1  0
  6  7  2  3
  5  8  1  0
  4 10  1  0
 10 11  2  0
 11 12  1  0
 12 13  2  0
 13 14  1  0
 10 15  1  0
 14 15  2  0
  9 16  2  0
  9 17  1  0
 14 18  1  0
 17 18  2  0
 18 19  1  0
 16 20  1  0
 19 20  2  0
  2 21  1  0
  7 22  1  0
  8 23  1  0
  8 24  1  0
  8 25  1  0
 11 26  1  0
 12 27  1  0
 13 28  1  0
 15 29  1  0
 16 30  1  0
 17 31  1  0
 19 32  1  0
 20 33  1  0
 34 35  1  0
 35 36  2  0
 35 37  1  0
 37 38  2  3
 34 39  1  0
 37 40  1  0
 38 41  1  0
 38 42  1  0
  4 34  1  6
M  END
>  <attachment_point>  (322) 
21

>  <score>  (322) 
<NA>

$$$$
4djw
     RDKit          3D

 43 46  0  0  0  0  0  0  0  0999 V2000
   22.4950   11.8750   22.5810 C   0  0  0  0  0  0  0  0  0  0  0  0
   22.5380    9.4930   22.4640 N   0  0  0  0  0  0  0  0  0  0  0  0
   22.3600   13.0630   22.3480 O   0  0  0  0  0  0  0  0  0  0  0  0
   22.3390   10.6680   21.5610 C   0  0  2  0  0  0  0  0  0  0  0  0
   22.7860   11.3350   23.8120 N   0  0  0  0  0  0  0  0  0  0  0  0
   22.7800    9.9140   23.7010 C   0  0  0  0  0  0  0  0  0  0  0  0
   22.9970    9.1110   24.7490 N   0  0  0  0  0  0  0  0  0  0  0  0
   23.0220   12.1410   25.0180 C   0  0  0  0  0  0  0  0  0  0  0  0
   29.1260    9.8230   21.7090 N   0  0  0  0  0  0  0  0  0  0  0  0
   23.4880   10.6920   20.5300 C   0  0  0  0  0  0  0  0  0  0  0  0
   23.2110   10.7890   19.1730 C   0  0  0  0  0  0  0  0  0  0  0  0
   24.2350   10.8650   18.2430 C   0  0  0  0  0  0  0  0  0  0  0  0
   25.5500   10.8410   18.6560 C   0  0  0  0  0  0  0  0  0  0  0  0
   25.8710   10.7460   20.0070 C   0  0  0  0  0  0  0  0  0  0  0  0
   24.8260   10.6610   20.9430 C   0  0  0  0  0  0  0  0  0  0  0  0
   29.8540   10.9130   21.4510 C   0  0  0  0  0  0  0  0  0  0  0  0
   27.8830    9.7800   21.2080 C   0  0  0  0  0  0  0  0  0  0  0  0
   27.3000   10.8010   20.4650 C   0  0  0  0  0  0  0  0  0  0  0  0
   28.0930   11.9190   20.2200 C   0  0  0  0  0  0  0  0  0  0  0  0
   29.3850   11.9780   20.7130 C   0  0  0  0  0  0  0  0  0  0  0  0
    0.0000    0.0000    0.0000 H   0  0  0  0  0  0  0  0  0  0  0  0
    0.0000    0.0000    0.0000 H   0  0  0  0  0  0  0  0  0  0  0  0
    0.0000    0.0000    0.0000 H   0  0  0  0  0  0  0  0  0  0  0  0
    0.0000    0.0000    0.0000 H   0  0  0  0  0  0  0  0  0  0  0  0
    0.0000    0.0000    0.0000 H   0  0  0  0  0  0  0  0  0  0  0  0
    0.0000    0.0000    0.0000 H   0  0  0  0  0  0  0  0  0  0  0  0
    0.0000    0.0000    0.0000 H   0  0  0  0  0  0  0  0  0  0  0  0
    0.0000    0.0000    0.0000 H   0  0  0  0  0  0  0  0  0  0  0  0
    0.0000    0.0000    0.0000 H   0  0  0  0  0  0  0  0  0  0  0  0
    0.0000    0.0000    0.0000 H   0  0  0  0  0  0  0  0  0  0  0  0
    0.0000    0.0000    0.0000 H   0  0  0  0  0  0  0  0  0  0  0  0
    0.0000    0.0000    0.0000 H   0  0  0  0  0  0  0  0  0  0  0  0
    0.0000    0.0000    0.0000 H   0  0  0  0  0  0  0  0  0  0  0  0
   10.8949    5.2029   10.5155 N   0  0  0  0  0  0  0  0  0  0  0  0
   10.6540    6.1551    9.4257 C   0  0  0  0  0  0  0  0  0  0  0  0
   10.6021    4.9428    8.5118 C   0  0  0  0  0  0  0  0  0  0  0  0
   11.5793    4.3720    9.5177 C   0  0  0  0  0  0  0  0  0  0  0  0
    9.7414    6.7385    9.5084 H   0  0  0  0  0  0  0  0  0  0  0  0
   11.6016    6.7117    9.2429 H   0  0  0  0  0  0  0  0  0  0  0  0
   11.0115    5.2071    7.5332 H   0  0  0  0  0  0  0  0  0  0  0  0
    9.6637    4.3776    8.5272 H   0  0  0  0  0  0  0  0  0  0  0  0
   12.6305    4.6997    9.3764 H   0  0  0  0  0  0  0  0  0  0  0  0
   11.4664    3.3177    9.7649 H   0  0  0  0  0  0  0  0  0  0  0  0
  1  3  2  0
  1  4  1  0
  2  4  1  0
  1  5  1  0
  2  6  1  0
  5  6  1  0
  6  7  2  3
  5  8  1  0
  4 10  1  0
 10 11  2  0
 11 12  1  0
 12 13  2  0
 13 14  1  0
 10 15  1  0
 14 15  2  0
  9 16  2  0
  9 17  1  0
 14 18  1  0
 17 18  2  0
 18 19  1  0
 16 20  1  0
 19 20  2  0
  2 21  1  0
  7 22  1  0
  8 23  1  0
  8 24  1  0
  8 25  1  0
 11 26  1  0
 12 27  1  0
 13 28  1  0
 15 29  1  0
 16 30  1  0
 17 31  1  0
 19 32  1  0
 20 33  1  0
 34 35  1  0
 35 36  1  0
 36 37  1  0
 37 34  1  0
 35 38  1  0
 35 39  1  0
 36 40  1  0
 36 41  1  0
 37 42  1  0
 37 43  1  0
  4 34  1  6
M  END
>  <attachment_point>  (323) 
21

>  <score>  (323) 
<NA>

$$$$
4djw
     RDKit          3D

 50 53  0  0  0  0  0  0  0  0999 V2000
   22.4950   11.8750   22.5810 C   0  0  0  0  0  0  0  0  0  0  0  0
   22.5380    9.4930   22.4640 N   0  0  0  0  0  0  0  0  0  0  0  0
   22.3600   13.0630   22.3480 O   0  0  0  0  0  0  0  0  0  0  0  0
   22.3390   10.6680   21.5610 C   0  0  2  0  0  0  0  0  0  0  0  0
   22.7860   11.3350   23.8120 N   0  0  0  0  0  0  0  0  0  0  0  0
   22.7800    9.9140   23.7010 C   0  0  0  0  0  0  0  0  0  0  0  0
   22.9970    9.1110   24.7490 N   0  0  0  0  0  0  0  0  0  0  0  0
   23.0220   12.1410   25.0180 C   0  0  0  0  0  0  0  0  0  0  0  0
   29.1260    9.8230   21.7090 N   0  0  0  0  0  0  0  0  0  0  0  0
   23.4880   10.6920   20.5300 C   0  0  0  0  0  0  0  0  0  0  0  0
   23.2110   10.7890   19.1730 C   0  0  0  0  0  0  0  0  0  0  0  0
   24.2350   10.8650   18.2430 C   0  0  0  0  0  0  0  0  0  0  0  0
   25.5500   10.8410   18.6560 C   0  0  0  0  0  0  0  0  0  0  0  0
   25.8710   10.7460   20.0070 C   0  0  0  0  0  0  0  0  0  0  0  0
   24.8260   10.6610   20.9430 C   0  0  0  0  0  0  0  0  0  0  0  0
   29.8540   10.9130   21.4510 C   0  0  0  0  0  0  0  0  0  0  0  0
   27.8830    9.7800   21.2080 C   0  0  0  0  0  0  0  0  0  0  0  0
   27.3000   10.8010   20.4650 C   0  0  0  0  0  0  0  0  0  0  0  0
   28.0930   11.9190   20.2200 C   0  0  0  0  0  0  0  0  0  0  0  0
   29.3850   11.9780   20.7130 C   0  0  0  0  0  0  0  0  0  0  0  0
    0.0000    0.0000    0.0000 H   0  0  0  0  0  0  0  0  0  0  0  0
    0.0000    0.0000    0.0000 H   0  0  0  0  0  0  0  0  0  0  0  0
    0.0000    0.0000    0.0000 H   0  0  0  0  0  0  0  0  0  0  0  0
    0.0000    0.0000    0.0000 H   0  0  0  0  0  0  0  0  0  0  0  0
    0.0000    0.0000    0.0000 H   0  0  0  0  0  0  0  0  0  0  0  0
    0.0000    0.0000    0.0000 H   0  0  0  0  0  0  0  0  0  0  0  0
    0.0000    0.0000    0.0000 H   0  0  0  0  0  0  0  0  0  0  0  0
    0.0000    0.0000    0.0000 H   0  0  0  0  0  0  0  0  0  0  0  0
    0.0000    0.0000    0.0000 H   0  0  0  0  0  0  0  0  0  0  0  0
    0.0000    0.0000    0.0000 H   0  0  0  0  0  0  0  0  0  0  0  0
    0.0000    0.0000    0.0000 H   0  0  0  0  0  0  0  0  0  0  0  0
    0.0000    0.0000    0.0000 H   0  0  0  0  0  0  0  0  0  0  0  0
    0.0000    0.0000    0.0000 H   0  0  0  0  0  0  0  0  0  0  0  0
   10.7317    5.1249   10.3580 C   0  0  0  0  0  0  0  0  0  0  0  0
    9.6643    5.8373   11.0298 C   0  0  0  0  0  0  0  0  0  0  0  0
    9.2942    7.1345   10.7299 C   0  0  0  0  0  0  0  0  0  0  0  0
    8.2717    7.7771   11.3935 C   0  0  0  0  0  0  0  0  0  0  0  0
    7.5662    7.1511   12.3939 C   0  0  0  0  0  0  0  0  0  0  0  0
    6.4510    7.8363   13.1257 C   0  0  0  0  0  0  0  0  0  0  0  0
    7.9303    5.8469   12.7032 C   0  0  0  0  0  0  0  0  0  0  0  0
    8.9554    5.2117   12.0333 C   0  0  0  0  0  0  0  0  0  0  0  0
   11.0217    4.1708   10.7332 H   0  0  0  0  0  0  0  0  0  0  0  0
   11.3446    5.6548    9.6632 H   0  0  0  0  0  0  0  0  0  0  0  0
    9.8567    7.6177    9.9402 H   0  0  0  0  0  0  0  0  0  0  0  0
    8.0253    8.7832   11.1216 H   0  0  0  0  0  0  0  0  0  0  0  0
    6.2598    7.2874   14.0791 H   0  0  0  0  0  0  0  0  0  0  0  0
    6.7473    8.8783   13.4137 H   0  0  0  0  0  0  0  0  0  0  0  0
    5.5799    7.8606   12.4623 H   0  0  0  0  0  0  0  0  0  0  0  0
    7.3636    5.3717   13.4927 H   0  0  0  0  0  0  0  0  0  0  0  0
    9.1880    4.1967   12.3231 H   0  0  0  0  0  0  0  0  0  0  0  0
  1  3  2  0
  1  4  1  0
  2  4  1  0
  1  5  1  0
  2  6  1  0
  5  6  1  0
  6  7  2  3
  5  8  1  0
  4 10  1  0
 10 11  2  0
 11 12  1  0
 12 13  2  0
 13 14  1  0
 10 15  1  0
 14 15  2  0
  9 16  2  0
  9 17  1  0
 14 18  1  0
 17 18  2  0
 18 19  1  0
 16 20  1  0
 19 20  2  0
  2 21  1  0
  7 22  1  0
  8 23  1  0
  8 24  1  0
  8 25  1  0
 11 26  1  0
 12 27  1  0
 13 28  1  0
 15 29  1  0
 16 30  1  0
 17 31  1  0
 19 32  1  0
 20 33  1  0
 34 35  1  0
 35 36  2  0
 36 37  1  0
 37 38  2  0
 38 39  1  0
 38 40  1  0
 40 41  2  0
 41 35  1  0
 34 42  1  0
 34 43  1  0
 36 44  1  0
 37 45  1  0
 39 46  1  0
 39 47  1  0
 39 48  1  0
 40 49  1  0
 41 50  1  0
  4 34  1  6
M  END
>  <attachment_point>  (324) 
21

>  <score>  (324) 
<NA>

$$$$
4djw
     RDKit          3D

 48 51  0  0  0  0  0  0  0  0999 V2000
   22.4950   11.8750   22.5810 C   0  0  0  0  0  0  0  0  0  0  0  0
   22.5380    9.4930   22.4640 N   0  0  0  0  0  0  0  0  0  0  0  0
   22.3600   13.0630   22.3480 O   0  0  0  0  0  0  0  0  0  0  0  0
   22.3390   10.6680   21.5610 C   0  0  2  0  0  0  0  0  0  0  0  0
   22.7860   11.3350   23.8120 N   0  0  0  0  0  0  0  0  0  0  0  0
   22.7800    9.9140   23.7010 C   0  0  0  0  0  0  0  0  0  0  0  0
   22.9970    9.1110   24.7490 N   0  0  0  0  0  0  0  0  0  0  0  0
   23.0220   12.1410   25.0180 C   0  0  0  0  0  0  0  0  0  0  0  0
   29.1260    9.8230   21.7090 N   0  0  0  0  0  0  0  0  0  0  0  0
   23.4880   10.6920   20.5300 C   0  0  0  0  0  0  0  0  0  0  0  0
   23.2110   10.7890   19.1730 C   0  0  0  0  0  0  0  0  0  0  0  0
   24.2350   10.8650   18.2430 C   0  0  0  0  0  0  0  0  0  0  0  0
   25.5500   10.8410   18.6560 C   0  0  0  0  0  0  0  0  0  0  0  0
   25.8710   10.7460   20.0070 C   0  0  0  0  0  0  0  0  0  0  0  0
   24.8260   10.6610   20.9430 C   0  0  0  0  0  0  0  0  0  0  0  0
   29.8540   10.9130   21.4510 C   0  0  0  0  0  0  0  0  0  0  0  0
   27.8830    9.7800   21.2080 C   0  0  0  0  0  0  0  0  0  0  0  0
   27.3000   10.8010   20.4650 C   0  0  0  0  0  0  0  0  0  0  0  0
   28.0930   11.9190   20.2200 C   0  0  0  0  0  0  0  0  0  0  0  0
   29.3850   11.9780   20.7130 C   0  0  0  0  0  0  0  0  0  0  0  0
    0.0000    0.0000    0.0000 H   0  0  0  0  0  0  0  0  0  0  0  0
    0.0000    0.0000    0.0000 H   0  0  0  0  0  0  0  0  0  0  0  0
    0.0000    0.0000    0.0000 H   0  0  0  0  0  0  0  0  0  0  0  0
    0.0000    0.0000    0.0000 H   0  0  0  0  0  0  0  0  0  0  0  0
    0.0000    0.0000    0.0000 H   0  0  0  0  0  0  0  0  0  0  0  0
    0.0000    0.0000    0.0000 H   0  0  0  0  0  0  0  0  0  0  0  0
    0.0000    0.0000    0.0000 H   0  0  0  0  0  0  0  0  0  0  0  0
    0.0000    0.0000    0.0000 H   0  0  0  0  0  0  0  0  0  0  0  0
    0.0000    0.0000    0.0000 H   0  0  0  0  0  0  0  0  0  0  0  0
    0.0000    0.0000    0.0000 H   0  0  0  0  0  0  0  0  0  0  0  0
    0.0000    0.0000    0.0000 H   0  0  0  0  0  0  0  0  0  0  0  0
    0.0000    0.0000    0.0000 H   0  0  0  0  0  0  0  0  0  0  0  0
    0.0000    0.0000    0.0000 H   0  0  0  0  0  0  0  0  0  0  0  0
   10.8603    5.1863   10.4821 C   0  0  0  0  0  0  0  0  0  0  0  0
    9.9197    6.0361    9.9553 C   0  0  0  0  0  0  0  0  0  0  0  0
    9.0053    5.5173    9.0487 C   0  0  0  0  0  0  0  0  0  0  0  0
    9.0092    4.1967    8.6642 C   0  0  0  0  0  0  0  0  0  0  0  0
    7.9890    3.7513    7.6916 C   0  0  0  0  0  0  0  0  0  0  0  0
    6.8341    3.3112    8.3086 O   0  0  0  0  0  0  0  0  0  0  0  0
    9.9567    3.3481    9.1969 C   0  0  0  0  0  0  0  0  0  0  0  0
   10.8693    3.8795   10.1059 C   0  0  0  0  0  0  0  0  0  0  0  0
    9.8852    7.0632   10.2284 H   0  0  0  0  0  0  0  0  0  0  0  0
    8.2749    6.2350    8.6567 H   0  0  0  0  0  0  0  0  0  0  0  0
    7.7904    4.6126    6.9898 H   0  0  0  0  0  0  0  0  0  0  0  0
    8.4312    2.9571    7.0792 H   0  0  0  0  0  0  0  0  0  0  0  0
    6.5265    2.4999    7.8308 H   0  0  0  0  0  0  0  0  0  0  0  0
    9.9780    2.2991    8.9066 H   0  0  0  0  0  0  0  0  0  0  0  0
   11.6018    3.1989   10.5104 H   0  0  0  0  0  0  0  0  0  0  0  0
  1  3  2  0
  1  4  1  0
  2  4  1  0
  1  5  1  0
  2  6  1  0
  5  6  1  0
  6  7  2  3
  5  8  1  0
  4 10  1  6
 10 11  2  0
 11 12  1  0
 12 13  2  0
 13 14  1  0
 10 15  1  0
 14 15  2  0
  9 16  2  0
  9 17  1  0
 14 18  1  0
 17 18  2  0
 18 19  1  0
 16 20  1  0
 19 20  2  0
  2 21  1  0
  7 22  1  0
  8 23  1  0
  8 24  1  0
  8 25  1  0
 11 26  1  0
 12 27  1  0
 13 28  1  0
 15 29  1  0
 16 30  1  0
 17 31  1  0
 19 32  1  0
 20 33  1  0
 34 35  2  0
 35 36  1  0
 36 37  2  0
 37 38  1  0
 38 39  1  0
 37 40  1  0
 40 41  2  0
 41 34  1  0
 35 42  1  0
 36 43  1  0
 38 44  1  0
 38 45  1  0
 39 46  1  0
 40 47  1  0
 41 48  1  0
  4 34  1  0
M  END
>  <attachment_point>  (325) 
21

>  <score>  (325) 
<NA>

$$$$
4djw
     RDKit          3D

 53 56  0  0  0  0  0  0  0  0999 V2000
   22.4950   11.8750   22.5810 C   0  0  0  0  0  0  0  0  0  0  0  0
   22.5380    9.4930   22.4640 N   0  0  0  0  0  0  0  0  0  0  0  0
   22.3600   13.0630   22.3480 O   0  0  0  0  0  0  0  0  0  0  0  0
   22.3390   10.6680   21.5610 C   0  0  2  0  0  0  0  0  0  0  0  0
   22.7860   11.3350   23.8120 N   0  0  0  0  0  0  0  0  0  0  0  0
   22.7800    9.9140   23.7010 C   0  0  0  0  0  0  0  0  0  0  0  0
   22.9970    9.1110   24.7490 N   0  0  0  0  0  0  0  0  0  0  0  0
   23.0220   12.1410   25.0180 C   0  0  0  0  0  0  0  0  0  0  0  0
   29.1260    9.8230   21.7090 N   0  0  0  0  0  0  0  0  0  0  0  0
   23.4880   10.6920   20.5300 C   0  0  0  0  0  0  0  0  0  0  0  0
   23.2110   10.7890   19.1730 C   0  0  0  0  0  0  0  0  0  0  0  0
   24.2350   10.8650   18.2430 C   0  0  0  0  0  0  0  0  0  0  0  0
   25.5500   10.8410   18.6560 C   0  0  0  0  0  0  0  0  0  0  0  0
   25.8710   10.7460   20.0070 C   0  0  0  0  0  0  0  0  0  0  0  0
   24.8260   10.6610   20.9430 C   0  0  0  0  0  0  0  0  0  0  0  0
   29.8540   10.9130   21.4510 C   0  0  0  0  0  0  0  0  0  0  0  0
   27.8830    9.7800   21.2080 C   0  0  0  0  0  0  0  0  0  0  0  0
   27.3000   10.8010   20.4650 C   0  0  0  0  0  0  0  0  0  0  0  0
   28.0930   11.9190   20.2200 C   0  0  0  0  0  0  0  0  0  0  0  0
   29.3850   11.9780   20.7130 C   0  0  0  0  0  0  0  0  0  0  0  0
    0.0000    0.0000    0.0000 H   0  0  0  0  0  0  0  0  0  0  0  0
    0.0000    0.0000    0.0000 H   0  0  0  0  0  0  0  0  0  0  0  0
    0.0000    0.0000    0.0000 H   0  0  0  0  0  0  0  0  0  0  0  0
    0.0000    0.0000    0.0000 H   0  0  0  0  0  0  0  0  0  0  0  0
    0.0000    0.0000    0.0000 H   0  0  0  0  0  0  0  0  0  0  0  0
    0.0000    0.0000    0.0000 H   0  0  0  0  0  0  0  0  0  0  0  0
    0.0000    0.0000    0.0000 H   0  0  0  0  0  0  0  0  0  0  0  0
    0.0000    0.0000    0.0000 H   0  0  0  0  0  0  0  0  0  0  0  0
    0.0000    0.0000    0.0000 H   0  0  0  0  0  0  0  0  0  0  0  0
    0.0000    0.0000    0.0000 H   0  0  0  0  0  0  0  0  0  0  0  0
    0.0000    0.0000    0.0000 H   0  0  0  0  0  0  0  0  0  0  0  0
    0.0000    0.0000    0.0000 H   0  0  0  0  0  0  0  0  0  0  0  0
    0.0000    0.0000    0.0000 H   0  0  0  0  0  0  0  0  0  0  0  0
   10.8447    5.1789   10.4670 O   0  0  0  0  0  0  0  0  0  0  0  0
   11.7010    4.5854    9.5634 C   0  0  0  0  0  0  0  0  0  0  0  0
   11.5174    5.3267    8.2394 C   0  0  0  0  0  0  0  0  0  0  0  0
   12.3070    4.6558    7.1583 C   0  0  0  0  0  0  0  0  0  0  0  0
   12.6395    3.3003    7.4340 N   0  0  0  0  0  0  0  0  0  0  0  0
   13.1193    2.6708    6.2420 C   0  0  0  0  0  0  0  0  0  0  0  0
   11.6137    2.5464    8.0975 C   0  0  0  0  0  0  0  0  0  0  0  0
   11.2451    3.1513    9.4082 C   0  0  0  0  0  0  0  0  0  0  0  0
   12.7324    4.6798    9.8721 H   0  0  0  0  0  0  0  0  0  0  0  0
   11.8714    6.3783    8.4411 H   0  0  0  0  0  0  0  0  0  0  0  0
   10.4284    5.3365    8.0387 H   0  0  0  0  0  0  0  0  0  0  0  0
   13.2689    5.2296    7.0577 H   0  0  0  0  0  0  0  0  0  0  0  0
   11.7970    4.7987    6.1611 H   0  0  0  0  0  0  0  0  0  0  0  0
   14.1688    2.9902    6.0626 H   0  0  0  0  0  0  0  0  0  0  0  0
   12.5520    2.9844    5.3383 H   0  0  0  0  0  0  0  0  0  0  0  0
   13.0695    1.5638    6.2701 H   0  0  0  0  0  0  0  0  0  0  0  0
   12.0458    1.5322    8.3079 H   0  0  0  0  0  0  0  0  0  0  0  0
   10.7214    2.3526    7.4593 H   0  0  0  0  0  0  0  0  0  0  0  0
   10.1484    3.1118    9.5475 H   0  0  0  0  0  0  0  0  0  0  0  0
   11.6770    2.5954   10.2826 H   0  0  0  0  0  0  0  0  0  0  0  0
  1  3  2  0
  1  4  1  0
  2  4  1  0
  1  5  1  0
  2  6  1  0
  5  6  1  0
  6  7  2  3
  5  8  1  0
  4 10  1  0
 10 11  2  0
 11 12  1  0
 12 13  2  0
 13 14  1  0
 10 15  1  0
 14 15  2  0
  9 16  2  0
  9 17  1  0
 14 18  1  0
 17 18  2  0
 18 19  1  0
 16 20  1  0
 19 20  2  0
  2 21  1  0
  7 22  1  0
  8 23  1  0
  8 24  1  0
  8 25  1  0
 11 26  1  0
 12 27  1  0
 13 28  1  0
 15 29  1  0
 16 30  1  0
 17 31  1  0
 19 32  1  0
 20 33  1  0
 34 35  1  0
 35 36  1  0
 36 37  1  0
 37 38  1  0
 38 39  1  0
 38 40  1  0
 40 41  1  0
 41 35  1  0
 35 42  1  0
 36 43  1  0
 36 44  1  0
 37 45  1  0
 37 46  1  0
 39 47  1  0
 39 48  1  0
 39 49  1  0
 40 50  1  0
 40 51  1  0
 41 52  1  0
 41 53  1  0
  4 34  1  6
M  END
>  <attachment_point>  (326) 
21

>  <score>  (326) 
<NA>

$$$$
4djw
     RDKit          3D

 50 53  0  0  0  0  0  0  0  0999 V2000
   22.4950   11.8750   22.5810 C   0  0  0  0  0  0  0  0  0  0  0  0
   22.5380    9.4930   22.4640 N   0  0  0  0  0  0  0  0  0  0  0  0
   22.3600   13.0630   22.3480 O   0  0  0  0  0  0  0  0  0  0  0  0
   22.3390   10.6680   21.5610 C   0  0  2  0  0  0  0  0  0  0  0  0
   22.7860   11.3350   23.8120 N   0  0  0  0  0  0  0  0  0  0  0  0
   22.7800    9.9140   23.7010 C   0  0  0  0  0  0  0  0  0  0  0  0
   22.9970    9.1110   24.7490 N   0  0  0  0  0  0  0  0  0  0  0  0
   23.0220   12.1410   25.0180 C   0  0  0  0  0  0  0  0  0  0  0  0
   29.1260    9.8230   21.7090 N   0  0  0  0  0  0  0  0  0  0  0  0
   23.4880   10.6920   20.5300 C   0  0  0  0  0  0  0  0  0  0  0  0
   23.2110   10.7890   19.1730 C   0  0  0  0  0  0  0  0  0  0  0  0
   24.2350   10.8650   18.2430 C   0  0  0  0  0  0  0  0  0  0  0  0
   25.5500   10.8410   18.6560 C   0  0  0  0  0  0  0  0  0  0  0  0
   25.8710   10.7460   20.0070 C   0  0  0  0  0  0  0  0  0  0  0  0
   24.8260   10.6610   20.9430 C   0  0  0  0  0  0  0  0  0  0  0  0
   29.8540   10.9130   21.4510 C   0  0  0  0  0  0  0  0  0  0  0  0
   27.8830    9.7800   21.2080 C   0  0  0  0  0  0  0  0  0  0  0  0
   27.3000   10.8010   20.4650 C   0  0  0  0  0  0  0  0  0  0  0  0
   28.0930   11.9190   20.2200 C   0  0  0  0  0  0  0  0  0  0  0  0
   29.3850   11.9780   20.7130 C   0  0  0  0  0  0  0  0  0  0  0  0
    0.0000    0.0000    0.0000 H   0  0  0  0  0  0  0  0  0  0  0  0
    0.0000    0.0000    0.0000 H   0  0  0  0  0  0  0  0  0  0  0  0
    0.0000    0.0000    0.0000 H   0  0  0  0  0  0  0  0  0  0  0  0
    0.0000    0.0000    0.0000 H   0  0  0  0  0  0  0  0  0  0  0  0
    0.0000    0.0000    0.0000 H   0  0  0  0  0  0  0  0  0  0  0  0
    0.0000    0.0000    0.0000 H   0  0  0  0  0  0  0  0  0  0  0  0
    0.0000    0.0000    0.0000 H   0  0  0  0  0  0  0  0  0  0  0  0
    0.0000    0.0000    0.0000 H   0  0  0  0  0  0  0  0  0  0  0  0
    0.0000    0.0000    0.0000 H   0  0  0  0  0  0  0  0  0  0  0  0
    0.0000    0.0000    0.0000 H   0  0  0  0  0  0  0  0  0  0  0  0
    0.0000    0.0000    0.0000 H   0  0  0  0  0  0  0  0  0  0  0  0
    0.0000    0.0000    0.0000 H   0  0  0  0  0  0  0  0  0  0  0  0
    0.0000    0.0000    0.0000 H   0  0  0  0  0  0  0  0  0  0  0  0
   10.8786    5.1951   10.4998 S   0  0  0  0  0  6  0  0  0  0  0  0
   10.0819    6.3434    9.9243 O   0  0  0  0  0  0  0  0  0  0  0  0
    9.8775    4.3347   11.2603 O   0  0  0  0  0  0  0  0  0  0  0  0
   11.5285    4.2131    9.2653 N   0  0  0  0  0  0  0  0  0  0  0  0
   12.4982    4.8611    8.4381 C   0  0  0  0  0  0  0  0  0  0  0  0
   13.2097    3.7999    7.6300 C   0  0  0  0  0  0  0  0  0  0  0  0
   12.4930    2.6504    7.4621 O   0  0  0  0  0  0  0  0  0  0  0  0
   11.1329    2.8102    7.3658 C   0  0  0  0  0  0  0  0  0  0  0  0
   10.5110    3.5063    8.5462 C   0  0  0  0  0  0  0  0  0  0  0  0
   12.0711    5.5815    7.7292 H   0  0  0  0  0  0  0  0  0  0  0  0
   13.1842    5.4274    9.1024 H   0  0  0  0  0  0  0  0  0  0  0  0
   13.5919    4.2254    6.6898 H   0  0  0  0  0  0  0  0  0  0  0  0
   14.1271    3.5314    8.2311 H   0  0  0  0  0  0  0  0  0  0  0  0
   10.6857    1.7871    7.2864 H   0  0  0  0  0  0  0  0  0  0  0  0
   10.8287    3.3329    6.4304 H   0  0  0  0  0  0  0  0  0  0  0  0
    9.7078    4.2022    8.2581 H   0  0  0  0  0  0  0  0  0  0  0  0
   10.1036    2.7432    9.2437 H   0  0  0  0  0  0  0  0  0  0  0  0
  1  3  2  0
  1  4  1  0
  2  4  1  0
  1  5  1  0
  2  6  1  0
  5  6  1  0
  6  7  2  3
  5  8  1  0
  4 10  1  6
 10 11  2  0
 11 12  1  0
 12 13  2  0
 13 14  1  0
 10 15  1  0
 14 15  2  0
  9 16  2  0
  9 17  1  0
 14 18  1  0
 17 18  2  0
 18 19  1  0
 16 20  1  0
 19 20  2  0
  2 21  1  0
  7 22  1  0
  8 23  1  0
  8 24  1  0
  8 25  1  0
 11 26  1  0
 12 27  1  0
 13 28  1  0
 15 29  1  0
 16 30  1  0
 17 31  1  0
 19 32  1  0
 20 33  1  0
 34 35  2  0
 34 36  2  0
 34 37  1  0
 37 38  1  0
 38 39  1  0
 39 40  1  0
 40 41  1  0
 41 42  1  0
 42 37  1  0
 38 43  1  0
 38 44  1  0
 39 45  1  0
 39 46  1  0
 41 47  1  0
 41 48  1  0
 42 49  1  0
 42 50  1  0
  4 34  1  0
M  END
>  <attachment_point>  (327) 
21

>  <score>  (327) 
<NA>

$$$$
4djw
     RDKit          3D

 44 47  0  0  0  0  0  0  0  0999 V2000
   22.4950   11.8750   22.5810 C   0  0  0  0  0  0  0  0  0  0  0  0
   22.5380    9.4930   22.4640 N   0  0  0  0  0  0  0  0  0  0  0  0
   22.3600   13.0630   22.3480 O   0  0  0  0  0  0  0  0  0  0  0  0
   22.3390   10.6680   21.5610 C   0  0  2  0  0  0  0  0  0  0  0  0
   22.7860   11.3350   23.8120 N   0  0  0  0  0  0  0  0  0  0  0  0
   22.7800    9.9140   23.7010 C   0  0  0  0  0  0  0  0  0  0  0  0
   22.9970    9.1110   24.7490 N   0  0  0  0  0  0  0  0  0  0  0  0
   23.0220   12.1410   25.0180 C   0  0  0  0  0  0  0  0  0  0  0  0
   29.1260    9.8230   21.7090 N   0  0  0  0  0  0  0  0  0  0  0  0
   23.4880   10.6920   20.5300 C   0  0  0  0  0  0  0  0  0  0  0  0
   23.2110   10.7890   19.1730 C   0  0  0  0  0  0  0  0  0  0  0  0
   24.2350   10.8650   18.2430 C   0  0  0  0  0  0  0  0  0  0  0  0
   25.5500   10.8410   18.6560 C   0  0  0  0  0  0  0  0  0  0  0  0
   25.8710   10.7460   20.0070 C   0  0  0  0  0  0  0  0  0  0  0  0
   24.8260   10.6610   20.9430 C   0  0  0  0  0  0  0  0  0  0  0  0
   29.8540   10.9130   21.4510 C   0  0  0  0  0  0  0  0  0  0  0  0
   27.8830    9.7800   21.2080 C   0  0  0  0  0  0  0  0  0  0  0  0
   27.3000   10.8010   20.4650 C   0  0  0  0  0  0  0  0  0  0  0  0
   28.0930   11.9190   20.2200 C   0  0  0  0  0  0  0  0  0  0  0  0
   29.3850   11.9780   20.7130 C   0  0  0  0  0  0  0  0  0  0  0  0
    0.0000    0.0000    0.0000 H   0  0  0  0  0  0  0  0  0  0  0  0
    0.0000    0.0000    0.0000 H   0  0  0  0  0  0  0  0  0  0  0  0
    0.0000    0.0000    0.0000 H   0  0  0  0  0  0  0  0  0  0  0  0
    0.0000    0.0000    0.0000 H   0  0  0  0  0  0  0  0  0  0  0  0
    0.0000    0.0000    0.0000 H   0  0  0  0  0  0  0  0  0  0  0  0
    0.0000    0.0000    0.0000 H   0  0  0  0  0  0  0  0  0  0  0  0
    0.0000    0.0000    0.0000 H   0  0  0  0  0  0  0  0  0  0  0  0
    0.0000    0.0000    0.0000 H   0  0  0  0  0  0  0  0  0  0  0  0
    0.0000    0.0000    0.0000 H   0  0  0  0  0  0  0  0  0  0  0  0
    0.0000    0.0000    0.0000 H   0  0  0  0  0  0  0  0  0  0  0  0
    0.0000    0.0000    0.0000 H   0  0  0  0  0  0  0  0  0  0  0  0
    0.0000    0.0000    0.0000 H   0  0  0  0  0  0  0  0  0  0  0  0
    0.0000    0.0000    0.0000 H   0  0  0  0  0  0  0  0  0  0  0  0
   10.8590    5.1857   10.4808 C   0  0  0  0  0  0  0  0  0  0  0  0
   11.6311    4.8097    9.2716 C   0  0  0  0  0  0  0  0  0  0  0  0
   12.1888    3.5914    8.9513 C   0  0  0  0  0  0  0  0  0  0  0  0
   12.7887    3.7239    7.7640 N   0  0  0  0  0  0  0  0  0  0  0  0
   12.6106    4.9868    7.3559 C   0  0  0  0  0  0  0  0  0  0  0  0
   11.8972    5.6714    8.2762 N   0  0  0  0  0  0  0  0  0  0  0  0
   10.4236    4.3064   10.9924 H   0  0  0  0  0  0  0  0  0  0  0  0
   10.1396    5.9940   10.2982 H   0  0  0  0  0  0  0  0  0  0  0  0
   12.1252    2.6990    9.5902 H   0  0  0  0  0  0  0  0  0  0  0  0
   13.3020    3.0015    7.2363 H   0  0  0  0  0  0  0  0  0  0  0  0
   12.9514    5.4660    6.4457 H   0  0  0  0  0  0  0  0  0  0  0  0
  1  3  2  0
  1  4  1  0
  2  4  1  0
  1  5  1  0
  2  6  1  0
  5  6  1  0
  6  7  2  3
  5  8  1  0
  4 10  1  0
 10 11  2  0
 11 12  1  0
 12 13  2  0
 13 14  1  0
 10 15  1  0
 14 15  2  0
  9 16  2  0
  9 17  1  0
 14 18  1  0
 17 18  2  0
 18 19  1  0
 16 20  1  0
 19 20  2  0
  2 21  1  0
  7 22  1  0
  8 23  1  0
  8 24  1  0
  8 25  1  0
 11 26  1  0
 12 27  1  0
 13 28  1  0
 15 29  1  0
 16 30  1  0
 17 31  1  0
 19 32  1  0
 20 33  1  0
 34 35  1  0
 35 36  2  0
 36 37  1  0
 37 38  1  0
 38 39  2  0
 39 35  1  0
 34 40  1  0
 34 41  1  0
 36 42  1  0
 37 43  1  0
 38 44  1  0
  4 34  1  6
M  END
>  <attachment_point>  (328) 
21

>  <score>  (328) 
<NA>

$$$$
4djw
     RDKit          3D

 47 50  0  0  0  0  0  0  0  0999 V2000
   22.4950   11.8750   22.5810 C   0  0  0  0  0  0  0  0  0  0  0  0
   22.5380    9.4930   22.4640 N   0  0  0  0  0  0  0  0  0  0  0  0
   22.3600   13.0630   22.3480 O   0  0  0  0  0  0  0  0  0  0  0  0
   22.3390   10.6680   21.5610 C   0  0  2  0  0  0  0  0  0  0  0  0
   22.7860   11.3350   23.8120 N   0  0  0  0  0  0  0  0  0  0  0  0
   22.7800    9.9140   23.7010 C   0  0  0  0  0  0  0  0  0  0  0  0
   22.9970    9.1110   24.7490 N   0  0  0  0  0  0  0  0  0  0  0  0
   23.0220   12.1410   25.0180 C   0  0  0  0  0  0  0  0  0  0  0  0
   29.1260    9.8230   21.7090 N   0  0  0  0  0  0  0  0  0  0  0  0
   23.4880   10.6920   20.5300 C   0  0  0  0  0  0  0  0  0  0  0  0
   23.2110   10.7890   19.1730 C   0  0  0  0  0  0  0  0  0  0  0  0
   24.2350   10.8650   18.2430 C   0  0  0  0  0  0  0  0  0  0  0  0
   25.5500   10.8410   18.6560 C   0  0  0  0  0  0  0  0  0  0  0  0
   25.8710   10.7460   20.0070 C   0  0  0  0  0  0  0  0  0  0  0  0
   24.8260   10.6610   20.9430 C   0  0  0  0  0  0  0  0  0  0  0  0
   29.8540   10.9130   21.4510 C   0  0  0  0  0  0  0  0  0  0  0  0
   27.8830    9.7800   21.2080 C   0  0  0  0  0  0  0  0  0  0  0  0
   27.3000   10.8010   20.4650 C   0  0  0  0  0  0  0  0  0  0  0  0
   28.0930   11.9190   20.2200 C   0  0  0  0  0  0  0  0  0  0  0  0
   29.3850   11.9780   20.7130 C   0  0  0  0  0  0  0  0  0  0  0  0
    0.0000    0.0000    0.0000 H   0  0  0  0  0  0  0  0  0  0  0  0
    0.0000    0.0000    0.0000 H   0  0  0  0  0  0  0  0  0  0  0  0
    0.0000    0.0000    0.0000 H   0  0  0  0  0  0  0  0  0  0  0  0
    0.0000    0.0000    0.0000 H   0  0  0  0  0  0  0  0  0  0  0  0
    0.0000    0.0000    0.0000 H   0  0  0  0  0  0  0  0  0  0  0  0
    0.0000    0.0000    0.0000 H   0  0  0  0  0  0  0  0  0  0  0  0
    0.0000    0.0000    0.0000 H   0  0  0  0  0  0  0  0  0  0  0  0
    0.0000    0.0000    0.0000 H   0  0  0  0  0  0  0  0  0  0  0  0
    0.0000    0.0000    0.0000 H   0  0  0  0  0  0  0  0  0  0  0  0
    0.0000    0.0000    0.0000 H   0  0  0  0  0  0  0  0  0  0  0  0
    0.0000    0.0000    0.0000 H   0  0  0  0  0  0  0  0  0  0  0  0
    0.0000    0.0000    0.0000 H   0  0  0  0  0  0  0  0  0  0  0  0
    0.0000    0.0000    0.0000 H   0  0  0  0  0  0  0  0  0  0  0  0
   10.8712    5.1915   10.4926 C   0  0  0  0  0  0  0  0  0  0  0  0
    9.6316    5.3704   10.6932 O   0  0  0  0  0  0  0  0  0  0  0  0
   11.3066    4.5100    9.3008 N   0  0  0  0  0  0  0  0  0  0  0  0
   10.3126    4.0711    8.4063 C   0  0  0  0  0  0  0  0  0  0  0  0
    9.7560    2.7946    8.5405 C   0  0  0  0  0  0  0  0  0  0  0  0
    8.7838    2.3652    7.6658 C   0  0  0  0  0  0  0  0  0  0  0  0
    8.3836    3.1936    6.6864 N   0  0  0  0  0  0  0  0  0  0  0  0
    8.9071    4.4328    6.5365 C   0  0  0  0  0  0  0  0  0  0  0  0
    9.8809    4.8950    7.3927 C   0  0  0  0  0  0  0  0  0  0  0  0
   12.3271    4.3609    9.1323 H   0  0  0  0  0  0  0  0  0  0  0  0
   10.0775    2.1384    9.3215 H   0  0  0  0  0  0  0  0  0  0  0  0
    8.3240    1.3677    7.7413 H   0  0  0  0  0  0  0  0  0  0  0  0
    8.5778    5.0981    5.7408 H   0  0  0  0  0  0  0  0  0  0  0  0
   10.3137    5.8746    7.2964 H   0  0  0  0  0  0  0  0  0  0  0  0
  1  3  2  0
  1  4  1  0
  2  4  1  0
  1  5  1  0
  2  6  1  0
  5  6  1  0
  6  7  2  3
  5  8  1  0
  4 10  1  0
 10 11  2  0
 11 12  1  0
 12 13  2  0
 13 14  1  0
 10 15  1  0
 14 15  2  0
  9 16  2  0
  9 17  1  0
 14 18  1  0
 17 18  2  0
 18 19  1  0
 16 20  1  0
 19 20  2  0
  2 21  1  0
  7 22  1  0
  8 23  1  0
  8 24  1  0
  8 25  1  0
 11 26  1  0
 12 27  1  0
 13 28  1  0
 15 29  1  0
 16 30  1  0
 17 31  1  0
 19 32  1  0
 20 33  1  0
 34 35  2  0
 34 36  1  0
 36 37  1  0
 37 38  2  0
 38 39  1  0
 39 40  2  0
 40 41  1  0
 41 42  2  0
 42 37  1  0
 36 43  1  0
 38 44  1  0
 39 45  1  0
 41 46  1  0
 42 47  1  0
  4 34  1  6
M  END
>  <attachment_point>  (329) 
21

>  <score>  (329) 
<NA>

$$$$
4djw
     RDKit          3D

 49 52  0  0  0  0  0  0  0  0999 V2000
   22.4950   11.8750   22.5810 C   0  0  0  0  0  0  0  0  0  0  0  0
   22.5380    9.4930   22.4640 N   0  0  0  0  0  0  0  0  0  0  0  0
   22.3600   13.0630   22.3480 O   0  0  0  0  0  0  0  0  0  0  0  0
   22.3390   10.6680   21.5610 C   0  0  2  0  0  0  0  0  0  0  0  0
   22.7860   11.3350   23.8120 N   0  0  0  0  0  0  0  0  0  0  0  0
   22.7800    9.9140   23.7010 C   0  0  0  0  0  0  0  0  0  0  0  0
   22.9970    9.1110   24.7490 N   0  0  0  0  0  0  0  0  0  0  0  0
   23.0220   12.1410   25.0180 C   0  0  0  0  0  0  0  0  0  0  0  0
   29.1260    9.8230   21.7090 N   0  0  0  0  0  0  0  0  0  0  0  0
   23.4880   10.6920   20.5300 C   0  0  0  0  0  0  0  0  0  0  0  0
   23.2110   10.7890   19.1730 C   0  0  0  0  0  0  0  0  0  0  0  0
   24.2350   10.8650   18.2430 C   0  0  0  0  0  0  0  0  0  0  0  0
   25.5500   10.8410   18.6560 C   0  0  0  0  0  0  0  0  0  0  0  0
   25.8710   10.7460   20.0070 C   0  0  0  0  0  0  0  0  0  0  0  0
   24.8260   10.6610   20.9430 C   0  0  0  0  0  0  0  0  0  0  0  0
   29.8540   10.9130   21.4510 C   0  0  0  0  0  0  0  0  0  0  0  0
   27.8830    9.7800   21.2080 C   0  0  0  0  0  0  0  0  0  0  0  0
   27.3000   10.8010   20.4650 C   0  0  0  0  0  0  0  0  0  0  0  0
   28.0930   11.9190   20.2200 C   0  0  0  0  0  0  0  0  0  0  0  0
   29.3850   11.9780   20.7130 C   0  0  0  0  0  0  0  0  0  0  0  0
    0.0000    0.0000    0.0000 H   0  0  0  0  0  0  0  0  0  0  0  0
    0.0000    0.0000    0.0000 H   0  0  0  0  0  0  0  0  0  0  0  0
    0.0000    0.0000    0.0000 H   0  0  0  0  0  0  0  0  0  0  0  0
    0.0000    0.0000    0.0000 H   0  0  0  0  0  0  0  0  0  0  0  0
    0.0000    0.0000    0.0000 H   0  0  0  0  0  0  0  0  0  0  0  0
    0.0000    0.0000    0.0000 H   0  0  0  0  0  0  0  0  0  0  0  0
    0.0000    0.0000    0.0000 H   0  0  0  0  0  0  0  0  0  0  0  0
    0.0000    0.0000    0.0000 H   0  0  0  0  0  0  0  0  0  0  0  0
    0.0000    0.0000    0.0000 H   0  0  0  0  0  0  0  0  0  0  0  0
    0.0000    0.0000    0.0000 H   0  0  0  0  0  0  0  0  0  0  0  0
    0.0000    0.0000    0.0000 H   0  0  0  0  0  0  0  0  0  0  0  0
    0.0000    0.0000    0.0000 H   0  0  0  0  0  0  0  0  0  0  0  0
    0.0000    0.0000    0.0000 H   0  0  0  0  0  0  0  0  0  0  0  0
   10.7882    5.1519   10.4125 O   0  0  0  0  0  0  0  0  0  0  0  0
   10.5355    6.3056    9.7032 C   0  0  0  0  0  0  0  0  0  0  0  0
   11.5479    7.0462    9.0946 C   0  0  0  0  0  0  0  0  0  0  0  0
   11.2312    8.1947    8.3968 C   0  0  0  0  0  0  0  0  0  0  0  0
    9.9194    8.6050    8.3039 C   0  0  0  0  0  0  0  0  0  0  0  0
    9.5994    9.7507    7.6084 O   0  0  0  0  0  0  0  0  0  0  0  0
   10.6051   10.5142    6.9860 C   0  0  0  0  0  0  0  0  0  0  0  0
    8.9073    7.8695    8.9091 C   0  0  0  0  0  0  0  0  0  0  0  0
    9.2248    6.7275    9.6025 C   0  0  0  0  0  0  0  0  0  0  0  0
   12.5722    6.7130    9.1754 H   0  0  0  0  0  0  0  0  0  0  0  0
   11.9701    8.8115    7.9036 H   0  0  0  0  0  0  0  0  0  0  0  0
   11.2996   10.8963    7.7570 H   0  0  0  0  0  0  0  0  0  0  0  0
   10.1197   11.3336    6.4157 H   0  0  0  0  0  0  0  0  0  0  0  0
   11.1561    9.8363    6.3041 H   0  0  0  0  0  0  0  0  0  0  0  0
    7.8780    8.1767    8.8456 H   0  0  0  0  0  0  0  0  0  0  0  0
    8.4482    6.1474   10.0770 H   0  0  0  0  0  0  0  0  0  0  0  0
  1  3  2  0
  1  4  1  0
  2  4  1  0
  1  5  1  0
  2  6  1  0
  5  6  1  0
  6  7  2  3
  5  8  1  0
  4 10  1  0
 10 11  2  0
 11 12  1  0
 12 13  2  0
 13 14  1  0
 10 15  1  0
 14 15  2  0
  9 16  2  0
  9 17  1  0
 14 18  1  0
 17 18  2  0
 18 19  1  0
 16 20  1  0
 19 20  2  0
  2 21  1  0
  7 22  1  0
  8 23  1  0
  8 24  1  0
  8 25  1  0
 11 26  1  0
 12 27  1  0
 13 28  1  0
 15 29  1  0
 16 30  1  0
 17 31  1  0
 19 32  1  0
 20 33  1  0
 34 35  1  0
 35 36  2  0
 36 37  1  0
 37 38  2  0
 38 39  1  0
 39 40  1  0
 38 41  1  0
 41 42  2  0
 42 35  1  0
 36 43  1  0
 37 44  1  0
 40 45  1  0
 40 46  1  0
 40 47  1  0
 41 48  1  0
 42 49  1  0
  4 34  1  6
M  END
>  <attachment_point>  (330) 
21

>  <score>  (330) 
<NA>

$$$$
4djw
     RDKit          3D

 51 54  0  0  0  0  0  0  0  0999 V2000
   22.4950   11.8750   22.5810 C   0  0  0  0  0  0  0  0  0  0  0  0
   22.5380    9.4930   22.4640 N   0  0  0  0  0  0  0  0  0  0  0  0
   22.3600   13.0630   22.3480 O   0  0  0  0  0  0  0  0  0  0  0  0
   22.3390   10.6680   21.5610 C   0  0  2  0  0  0  0  0  0  0  0  0
   22.7860   11.3350   23.8120 N   0  0  0  0  0  0  0  0  0  0  0  0
   22.7800    9.9140   23.7010 C   0  0  0  0  0  0  0  0  0  0  0  0
   22.9970    9.1110   24.7490 N   0  0  0  0  0  0  0  0  0  0  0  0
   23.0220   12.1410   25.0180 C   0  0  0  0  0  0  0  0  0  0  0  0
   29.1260    9.8230   21.7090 N   0  0  0  0  0  0  0  0  0  0  0  0
   23.4880   10.6920   20.5300 C   0  0  0  0  0  0  0  0  0  0  0  0
   23.2110   10.7890   19.1730 C   0  0  0  0  0  0  0  0  0  0  0  0
   24.2350   10.8650   18.2430 C   0  0  0  0  0  0  0  0  0  0  0  0
   25.5500   10.8410   18.6560 C   0  0  0  0  0  0  0  0  0  0  0  0
   25.8710   10.7460   20.0070 C   0  0  0  0  0  0  0  0  0  0  0  0
   24.8260   10.6610   20.9430 C   0  0  0  0  0  0  0  0  0  0  0  0
   29.8540   10.9130   21.4510 C   0  0  0  0  0  0  0  0  0  0  0  0
   27.8830    9.7800   21.2080 C   0  0  0  0  0  0  0  0  0  0  0  0
   27.3000   10.8010   20.4650 C   0  0  0  0  0  0  0  0  0  0  0  0
   28.0930   11.9190   20.2200 C   0  0  0  0  0  0  0  0  0  0  0  0
   29.3850   11.9780   20.7130 C   0  0  0  0  0  0  0  0  0  0  0  0
    0.0000    0.0000    0.0000 H   0  0  0  0  0  0  0  0  0  0  0  0
    0.0000    0.0000    0.0000 H   0  0  0  0  0  0  0  0  0  0  0  0
    0.0000    0.0000    0.0000 H   0  0  0  0  0  0  0  0  0  0  0  0
    0.0000    0.0000    0.0000 H   0  0  0  0  0  0  0  0  0  0  0  0
    0.0000    0.0000    0.0000 H   0  0  0  0  0  0  0  0  0  0  0  0
    0.0000    0.0000    0.0000 H   0  0  0  0  0  0  0  0  0  0  0  0
    0.0000    0.0000    0.0000 H   0  0  0  0  0  0  0  0  0  0  0  0
    0.0000    0.0000    0.0000 H   0  0  0  0  0  0  0  0  0  0  0  0
    0.0000    0.0000    0.0000 H   0  0  0  0  0  0  0  0  0  0  0  0
    0.0000    0.0000    0.0000 H   0  0  0  0  0  0  0  0  0  0  0  0
    0.0000    0.0000    0.0000 H   0  0  0  0  0  0  0  0  0  0  0  0
    0.0000    0.0000    0.0000 H   0  0  0  0  0  0  0  0  0  0  0  0
    0.0000    0.0000    0.0000 H   0  0  0  0  0  0  0  0  0  0  0  0
   10.8753    5.1935   10.4966 C   0  0  0  0  0  0  0  0  0  0  0  0
    9.5934    4.9554   11.1470 N   0  0  0  0  0  0  0  0  0  0  0  0
    9.5286    4.0015   12.2000 C   0  0  0  0  0  0  0  0  0  0  0  0
   10.6333    3.4233   12.4881 O   0  0  0  0  0  0  0  0  0  0  0  0
    8.3069    3.6891   12.9124 C   0  0  0  0  0  0  0  0  0  0  0  0
    8.3649    2.7480   13.9139 C   0  0  0  0  0  0  0  0  0  0  0  0
    7.2009    2.4233   14.6220 C   0  0  0  0  0  0  0  0  0  0  0  0
    6.0027    3.0370   14.3240 C   0  0  0  0  0  0  0  0  0  0  0  0
    5.9418    3.9677   13.3346 C   0  0  0  0  0  0  0  0  0  0  0  0
    7.1119    4.2857   12.6320 C   0  0  0  0  0  0  0  0  0  0  0  0
   11.2324    4.3143    9.9304 H   0  0  0  0  0  0  0  0  0  0  0  0
   10.7151    5.9976    9.7215 H   0  0  0  0  0  0  0  0  0  0  0  0
    8.7308    5.4662   10.8578 H   0  0  0  0  0  0  0  0  0  0  0  0
    9.2559    2.2349   14.1970 H   0  0  0  0  0  0  0  0  0  0  0  0
    7.2210    1.6843   15.4163 H   0  0  0  0  0  0  0  0  0  0  0  0
    5.0985    2.7889   14.8695 H   0  0  0  0  0  0  0  0  0  0  0  0
    4.9953    4.4606   13.0904 H   0  0  0  0  0  0  0  0  0  0  0  0
    7.0415    5.0257   11.8520 H   0  0  0  0  0  0  0  0  0  0  0  0
  1  3  2  0
  1  4  1  0
  2  4  1  0
  1  5  1  0
  2  6  1  0
  5  6  1  0
  6  7  2  3
  5  8  1  0
  4 10  1  0
 10 11  2  0
 11 12  1  0
 12 13  2  0
 13 14  1  0
 10 15  1  0
 14 15  2  0
  9 16  2  0
  9 17  1  0
 14 18  1  0
 17 18  2  0
 18 19  1  0
 16 20  1  0
 19 20  2  0
  2 21  1  0
  7 22  1  0
  8 23  1  0
  8 24  1  0
  8 25  1  0
 11 26  1  0
 12 27  1  0
 13 28  1  0
 15 29  1  0
 16 30  1  0
 17 31  1  0
 19 32  1  0
 20 33  1  0
 34 35  1  0
 35 36  1  0
 36 37  2  0
 36 38  1  0
 38 39  2  0
 39 40  1  0
 40 41  2  0
 41 42  1  0
 42 43  2  0
 43 38  1  0
 34 44  1  0
 34 45  1  0
 35 46  1  0
 39 47  1  0
 40 48  1  0
 41 49  1  0
 42 50  1  0
 43 51  1  0
  4 34  1  6
M  END
>  <attachment_point>  (331) 
21

>  <score>  (331) 
<NA>

$$$$
4djw
     RDKit          3D

 37 39  0  0  0  0  0  0  0  0999 V2000
   22.4950   11.8750   22.5810 C   0  0  0  0  0  0  0  0  0  0  0  0
   22.5380    9.4930   22.4640 N   0  0  0  0  0  0  0  0  0  0  0  0
   22.3600   13.0630   22.3480 O   0  0  0  0  0  0  0  0  0  0  0  0
   22.3390   10.6680   21.5610 C   0  0  2  0  0  0  0  0  0  0  0  0
   22.7860   11.3350   23.8120 N   0  0  0  0  0  0  0  0  0  0  0  0
   22.7800    9.9140   23.7010 C   0  0  0  0  0  0  0  0  0  0  0  0
   22.9970    9.1110   24.7490 N   0  0  0  0  0  0  0  0  0  0  0  0
   23.0220   12.1410   25.0180 C   0  0  0  0  0  0  0  0  0  0  0  0
   29.1260    9.8230   21.7090 N   0  0  0  0  0  0  0  0  0  0  0  0
   23.4880   10.6920   20.5300 C   0  0  0  0  0  0  0  0  0  0  0  0
   23.2110   10.7890   19.1730 C   0  0  0  0  0  0  0  0  0  0  0  0
   24.2350   10.8650   18.2430 C   0  0  0  0  0  0  0  0  0  0  0  0
   25.5500   10.8410   18.6560 C   0  0  0  0  0  0  0  0  0  0  0  0
   25.8710   10.7460   20.0070 C   0  0  0  0  0  0  0  0  0  0  0  0
   24.8260   10.6610   20.9430 C   0  0  0  0  0  0  0  0  0  0  0  0
   29.8540   10.9130   21.4510 C   0  0  0  0  0  0  0  0  0  0  0  0
   27.8830    9.7800   21.2080 C   0  0  0  0  0  0  0  0  0  0  0  0
   27.3000   10.8010   20.4650 C   0  0  0  0  0  0  0  0  0  0  0  0
   28.0930   11.9190   20.2200 C   0  0  0  0  0  0  0  0  0  0  0  0
   29.3850   11.9780   20.7130 C   0  0  0  0  0  0  0  0  0  0  0  0
    0.0000    0.0000    0.0000 H   0  0  0  0  0  0  0  0  0  0  0  0
    0.0000    0.0000    0.0000 H   0  0  0  0  0  0  0  0  0  0  0  0
    0.0000    0.0000    0.0000 H   0  0  0  0  0  0  0  0  0  0  0  0
    0.0000    0.0000    0.0000 H   0  0  0  0  0  0  0  0  0  0  0  0
    0.0000    0.0000    0.0000 H   0  0  0  0  0  0  0  0  0  0  0  0
    0.0000    0.0000    0.0000 H   0  0  0  0  0  0  0  0  0  0  0  0
    0.0000    0.0000    0.0000 H   0  0  0  0  0  0  0  0  0  0  0  0
    0.0000    0.0000    0.0000 H   0  0  0  0  0  0  0  0  0  0  0  0
    0.0000    0.0000    0.0000 H   0  0  0  0  0  0  0  0  0  0  0  0
    0.0000    0.0000    0.0000 H   0  0  0  0  0  0  0  0  0  0  0  0
    0.0000    0.0000    0.0000 H   0  0  0  0  0  0  0  0  0  0  0  0
    0.0000    0.0000    0.0000 H   0  0  0  0  0  0  0  0  0  0  0  0
    0.0000    0.0000    0.0000 H   0  0  0  0  0  0  0  0  0  0  0  0
   10.8405    5.1769   10.4630 C   0  0  0  0  0  0  0  0  0  0  0  0
    9.6371    5.5291   10.9741 F   0  0  0  0  0  0  0  0  0  0  0  0
   10.9661    4.0883   10.4314 H   0  0  0  0  0  0  0  0  0  0  0  0
   11.1210    5.6447    9.5208 H   0  0  0  0  0  0  0  0  0  0  0  0
  1  3  2  0
  1  4  1  0
  2  4  1  0
  1  5  1  0
  2  6  1  0
  5  6  1  0
  6  7  2  3
  5  8  1  0
  4 10  1  0
 10 11  2  0
 11 12  1  0
 12 13  2  0
 13 14  1  0
 10 15  1  0
 14 15  2  0
  9 16  2  0
  9 17  1  0
 14 18  1  0
 17 18  2  0
 18 19  1  0
 16 20  1  0
 19 20  2  0
  2 21  1  0
  7 22  1  0
  8 23  1  0
  8 24  1  0
  8 25  1  0
 11 26  1  0
 12 27  1  0
 13 28  1  0
 15 29  1  0
 16 30  1  0
 17 31  1  0
 19 32  1  0
 20 33  1  0
 34 35  1  0
 34 36  1  0
 34 37  1  0
  4 34  1  6
M  END
>  <attachment_point>  (332) 
21

>  <score>  (332) 
<NA>

$$$$
4djw
     RDKit          3D

 45 48  0  0  0  0  0  0  0  0999 V2000
   22.4950   11.8750   22.5810 C   0  0  0  0  0  0  0  0  0  0  0  0
   22.5380    9.4930   22.4640 N   0  0  0  0  0  0  0  0  0  0  0  0
   22.3600   13.0630   22.3480 O   0  0  0  0  0  0  0  0  0  0  0  0
   22.3390   10.6680   21.5610 C   0  0  2  0  0  0  0  0  0  0  0  0
   22.7860   11.3350   23.8120 N   0  0  0  0  0  0  0  0  0  0  0  0
   22.7800    9.9140   23.7010 C   0  0  0  0  0  0  0  0  0  0  0  0
   22.9970    9.1110   24.7490 N   0  0  0  0  0  0  0  0  0  0  0  0
   23.0220   12.1410   25.0180 C   0  0  0  0  0  0  0  0  0  0  0  0
   29.1260    9.8230   21.7090 N   0  0  0  0  0  0  0  0  0  0  0  0
   23.4880   10.6920   20.5300 C   0  0  0  0  0  0  0  0  0  0  0  0
   23.2110   10.7890   19.1730 C   0  0  0  0  0  0  0  0  0  0  0  0
   24.2350   10.8650   18.2430 C   0  0  0  0  0  0  0  0  0  0  0  0
   25.5500   10.8410   18.6560 C   0  0  0  0  0  0  0  0  0  0  0  0
   25.8710   10.7460   20.0070 C   0  0  0  0  0  0  0  0  0  0  0  0
   24.8260   10.6610   20.9430 C   0  0  0  0  0  0  0  0  0  0  0  0
   29.8540   10.9130   21.4510 C   0  0  0  0  0  0  0  0  0  0  0  0
   27.8830    9.7800   21.2080 C   0  0  0  0  0  0  0  0  0  0  0  0
   27.3000   10.8010   20.4650 C   0  0  0  0  0  0  0  0  0  0  0  0
   28.0930   11.9190   20.2200 C   0  0  0  0  0  0  0  0  0  0  0  0
   29.3850   11.9780   20.7130 C   0  0  0  0  0  0  0  0  0  0  0  0
    0.0000    0.0000    0.0000 H   0  0  0  0  0  0  0  0  0  0  0  0
    0.0000    0.0000    0.0000 H   0  0  0  0  0  0  0  0  0  0  0  0
    0.0000    0.0000    0.0000 H   0  0  0  0  0  0  0  0  0  0  0  0
    0.0000    0.0000    0.0000 H   0  0  0  0  0  0  0  0  0  0  0  0
    0.0000    0.0000    0.0000 H   0  0  0  0  0  0  0  0  0  0  0  0
    0.0000    0.0000    0.0000 H   0  0  0  0  0  0  0  0  0  0  0  0
    0.0000    0.0000    0.0000 H   0  0  0  0  0  0  0  0  0  0  0  0
    0.0000    0.0000    0.0000 H   0  0  0  0  0  0  0  0  0  0  0  0
    0.0000    0.0000    0.0000 H   0  0  0  0  0  0  0  0  0  0  0  0
    0.0000    0.0000    0.0000 H   0  0  0  0  0  0  0  0  0  0  0  0
    0.0000    0.0000    0.0000 H   0  0  0  0  0  0  0  0  0  0  0  0
    0.0000    0.0000    0.0000 H   0  0  0  0  0  0  0  0  0  0  0  0
    0.0000    0.0000    0.0000 H   0  0  0  0  0  0  0  0  0  0  0  0
   10.8404    5.1768   10.4629 N   0  0  0  0  0  0  0  0  0  0  0  0
    9.5543    5.0405   10.9860 C   0  0  0  0  0  0  0  0  0  0  0  0
    8.6419    6.0859   10.9652 C   0  0  0  0  0  0  0  0  0  0  0  0
    7.4055    5.8576   11.5008 C   0  0  0  0  0  0  0  0  0  0  0  0
    7.0311    4.6604   12.0497 C   0  0  0  0  0  0  0  0  0  0  0  0
    7.9465    3.6781   12.0479 N   0  0  0  0  0  0  0  0  0  0  0  0
    9.1679    3.8281   11.5446 C   0  0  0  0  0  0  0  0  0  0  0  0
   11.2342    5.0156    9.5550 H   0  0  0  0  0  0  0  0  0  0  0  0
    8.9458    7.0326   10.5284 H   0  0  0  0  0  0  0  0  0  0  0  0
    6.6760    6.6554   11.4971 H   0  0  0  0  0  0  0  0  0  0  0  0
    6.0361    4.5381   12.4596 H   0  0  0  0  0  0  0  0  0  0  0  0
    9.9161    3.0144   11.5472 H   0  0  0  0  0  0  0  0  0  0  0  0
  1  3  2  0
  1  4  1  0
  2  4  1  0
  1  5  1  0
  2  6  1  0
  5  6  1  0
  6  7  2  3
  5  8  1  0
  4 10  1  0
 10 11  2  0
 11 12  1  0
 12 13  2  0
 13 14  1  0
 10 15  1  0
 14 15  2  0
  9 16  2  0
  9 17  1  0
 14 18  1  0
 17 18  2  0
 18 19  1  0
 16 20  1  0
 19 20  2  0
  2 21  1  0
  7 22  1  0
  8 23  1  0
  8 24  1  0
  8 25  1  0
 11 26  1  0
 12 27  1  0
 13 28  1  0
 15 29  1  0
 16 30  1  0
 17 31  1  0
 19 32  1  0
 20 33  1  0
 34 35  1  0
 35 36  2  0
 36 37  1  0
 37 38  2  0
 38 39  1  0
 39 40  2  0
 40 35  1  0
 34 41  1  0
 36 42  1  0
 37 43  1  0
 38 44  1  0
 40 45  1  0
  4 34  1  6
M  END
>  <attachment_point>  (333) 
21

>  <score>  (333) 
<NA>

$$$$
4djw
     RDKit          3D

 48 51  0  0  0  0  0  0  0  0999 V2000
   22.4950   11.8750   22.5810 C   0  0  0  0  0  0  0  0  0  0  0  0
   22.5380    9.4930   22.4640 N   0  0  0  0  0  0  0  0  0  0  0  0
   22.3600   13.0630   22.3480 O   0  0  0  0  0  0  0  0  0  0  0  0
   22.3390   10.6680   21.5610 C   0  0  2  0  0  0  0  0  0  0  0  0
   22.7860   11.3350   23.8120 N   0  0  0  0  0  0  0  0  0  0  0  0
   22.7800    9.9140   23.7010 C   0  0  0  0  0  0  0  0  0  0  0  0
   22.9970    9.1110   24.7490 N   0  0  0  0  0  0  0  0  0  0  0  0
   23.0220   12.1410   25.0180 C   0  0  0  0  0  0  0  0  0  0  0  0
   29.1260    9.8230   21.7090 N   0  0  0  0  0  0  0  0  0  0  0  0
   23.4880   10.6920   20.5300 C   0  0  0  0  0  0  0  0  0  0  0  0
   23.2110   10.7890   19.1730 C   0  0  0  0  0  0  0  0  0  0  0  0
   24.2350   10.8650   18.2430 C   0  0  0  0  0  0  0  0  0  0  0  0
   25.5500   10.8410   18.6560 C   0  0  0  0  0  0  0  0  0  0  0  0
   25.8710   10.7460   20.0070 C   0  0  0  0  0  0  0  0  0  0  0  0
   24.8260   10.6610   20.9430 C   0  0  0  0  0  0  0  0  0  0  0  0
   29.8540   10.9130   21.4510 C   0  0  0  0  0  0  0  0  0  0  0  0
   27.8830    9.7800   21.2080 C   0  0  0  0  0  0  0  0  0  0  0  0
   27.3000   10.8010   20.4650 C   0  0  0  0  0  0  0  0  0  0  0  0
   28.0930   11.9190   20.2200 C   0  0  0  0  0  0  0  0  0  0  0  0
   29.3850   11.9780   20.7130 C   0  0  0  0  0  0  0  0  0  0  0  0
    0.0000    0.0000    0.0000 H   0  0  0  0  0  0  0  0  0  0  0  0
    0.0000    0.0000    0.0000 H   0  0  0  0  0  0  0  0  0  0  0  0
    0.0000    0.0000    0.0000 H   0  0  0  0  0  0  0  0  0  0  0  0
    0.0000    0.0000    0.0000 H   0  0  0  0  0  0  0  0  0  0  0  0
    0.0000    0.0000    0.0000 H   0  0  0  0  0  0  0  0  0  0  0  0
    0.0000    0.0000    0.0000 H   0  0  0  0  0  0  0  0  0  0  0  0
    0.0000    0.0000    0.0000 H   0  0  0  0  0  0  0  0  0  0  0  0
    0.0000    0.0000    0.0000 H   0  0  0  0  0  0  0  0  0  0  0  0
    0.0000    0.0000    0.0000 H   0  0  0  0  0  0  0  0  0  0  0  0
    0.0000    0.0000    0.0000 H   0  0  0  0  0  0  0  0  0  0  0  0
    0.0000    0.0000    0.0000 H   0  0  0  0  0  0  0  0  0  0  0  0
    0.0000    0.0000    0.0000 H   0  0  0  0  0  0  0  0  0  0  0  0
    0.0000    0.0000    0.0000 H   0  0  0  0  0  0  0  0  0  0  0  0
   10.8835    5.1974   10.5045 N   0  0  0  0  0  0  0  0  0  0  0  0
   11.5692    4.2711    9.6099 C   0  0  0  0  0  0  0  0  0  0  0  0
   12.6563    5.0134    8.9432 C   0  0  0  0  0  0  0  0  0  0  0  0
   13.8968    5.0483    9.5268 C   0  0  0  0  0  0  0  0  0  0  0  0
   14.9171    5.7474    8.8969 C   0  0  0  0  0  0  0  0  0  0  0  0
   14.6805    6.3779    7.7305 N   0  0  0  0  0  0  0  0  0  0  0  0
   13.4770    6.3701    7.1211 C   0  0  0  0  0  0  0  0  0  0  0  0
   12.4672    5.6673    7.7625 C   0  0  0  0  0  0  0  0  0  0  0  0
   10.4978    5.9956    9.9654 H   0  0  0  0  0  0  0  0  0  0  0  0
   11.9509    3.4176   10.2340 H   0  0  0  0  0  0  0  0  0  0  0  0
   10.8824    3.8519    8.8579 H   0  0  0  0  0  0  0  0  0  0  0  0
   14.1235    4.5495   10.4701 H   0  0  0  0  0  0  0  0  0  0  0  0
   15.8918    5.7617    9.3770 H   0  0  0  0  0  0  0  0  0  0  0  0
   13.2855    6.8748    6.1864 H   0  0  0  0  0  0  0  0  0  0  0  0
   11.4881    5.6315    7.3157 H   0  0  0  0  0  0  0  0  0  0  0  0
  1  3  2  0
  1  4  1  0
  2  4  1  0
  1  5  1  0
  2  6  1  0
  5  6  1  0
  6  7  2  3
  5  8  1  0
  4 10  1  0
 10 11  2  0
 11 12  1  0
 12 13  2  0
 13 14  1  0
 10 15  1  0
 14 15  2  0
  9 16  2  0
  9 17  1  0
 14 18  1  0
 17 18  2  0
 18 19  1  0
 16 20  1  0
 19 20  2  0
  2 21  1  0
  7 22  1  0
  8 23  1  0
  8 24  1  0
  8 25  1  0
 11 26  1  0
 12 27  1  0
 13 28  1  0
 15 29  1  0
 16 30  1  0
 17 31  1  0
 19 32  1  0
 20 33  1  0
 34 35  1  0
 35 36  1  0
 36 37  2  0
 37 38  1  0
 38 39  2  0
 39 40  1  0
 40 41  2  0
 41 36  1  0
 34 42  1  0
 35 43  1  0
 35 44  1  0
 37 45  1  0
 38 46  1  0
 40 47  1  0
 41 48  1  0
  4 34  1  6
M  END
>  <attachment_point>  (334) 
21

>  <score>  (334) 
<NA>

$$$$
4djw
     RDKit          3D

 41 44  0  0  0  0  0  0  0  0999 V2000
   22.4950   11.8750   22.5810 C   0  0  0  0  0  0  0  0  0  0  0  0
   22.5380    9.4930   22.4640 N   0  0  0  0  0  0  0  0  0  0  0  0
   22.3600   13.0630   22.3480 O   0  0  0  0  0  0  0  0  0  0  0  0
   22.3390   10.6680   21.5610 C   0  0  2  0  0  0  0  0  0  0  0  0
   22.7860   11.3350   23.8120 N   0  0  0  0  0  0  0  0  0  0  0  0
   22.7800    9.9140   23.7010 C   0  0  0  0  0  0  0  0  0  0  0  0
   22.9970    9.1110   24.7490 N   0  0  0  0  0  0  0  0  0  0  0  0
   23.0220   12.1410   25.0180 C   0  0  0  0  0  0  0  0  0  0  0  0
   29.1260    9.8230   21.7090 N   0  0  0  0  0  0  0  0  0  0  0  0
   23.4880   10.6920   20.5300 C   0  0  0  0  0  0  0  0  0  0  0  0
   23.2110   10.7890   19.1730 C   0  0  0  0  0  0  0  0  0  0  0  0
   24.2350   10.8650   18.2430 C   0  0  0  0  0  0  0  0  0  0  0  0
   25.5500   10.8410   18.6560 C   0  0  0  0  0  0  0  0  0  0  0  0
   25.8710   10.7460   20.0070 C   0  0  0  0  0  0  0  0  0  0  0  0
   24.8260   10.6610   20.9430 C   0  0  0  0  0  0  0  0  0  0  0  0
   29.8540   10.9130   21.4510 C   0  0  0  0  0  0  0  0  0  0  0  0
   27.8830    9.7800   21.2080 C   0  0  0  0  0  0  0  0  0  0  0  0
   27.3000   10.8010   20.4650 C   0  0  0  0  0  0  0  0  0  0  0  0
   28.0930   11.9190   20.2200 C   0  0  0  0  0  0  0  0  0  0  0  0
   29.3850   11.9780   20.7130 C   0  0  0  0  0  0  0  0  0  0  0  0
    0.0000    0.0000    0.0000 H   0  0  0  0  0  0  0  0  0  0  0  0
    0.0000    0.0000    0.0000 H   0  0  0  0  0  0  0  0  0  0  0  0
    0.0000    0.0000    0.0000 H   0  0  0  0  0  0  0  0  0  0  0  0
    0.0000    0.0000    0.0000 H   0  0  0  0  0  0  0  0  0  0  0  0
    0.0000    0.0000    0.0000 H   0  0  0  0  0  0  0  0  0  0  0  0
    0.0000    0.0000    0.0000 H   0  0  0  0  0  0  0  0  0  0  0  0
    0.0000    0.0000    0.0000 H   0  0  0  0  0  0  0  0  0  0  0  0
    0.0000    0.0000    0.0000 H   0  0  0  0  0  0  0  0  0  0  0  0
    0.0000    0.0000    0.0000 H   0  0  0  0  0  0  0  0  0  0  0  0
    0.0000    0.0000    0.0000 H   0  0  0  0  0  0  0  0  0  0  0  0
    0.0000    0.0000    0.0000 H   0  0  0  0  0  0  0  0  0  0  0  0
    0.0000    0.0000    0.0000 H   0  0  0  0  0  0  0  0  0  0  0  0
    0.0000    0.0000    0.0000 H   0  0  0  0  0  0  0  0  0  0  0  0
   10.8445    5.1788   10.4668 C   0  0  0  0  0  0  0  0  0  0  0  0
   10.6074    3.9338   10.1361 N   0  0  0  0  0  0  0  0  0  0  0  0
    9.6045    3.9315    9.2108 C   0  0  0  0  0  0  0  0  0  0  0  0
    9.2764    5.2632    9.0280 C   0  0  0  0  0  0  0  0  0  0  0  0
   10.0642    6.0367    9.8242 N   0  0  0  0  0  0  0  0  0  0  0  0
    9.1672    3.0742    8.7304 H   0  0  0  0  0  0  0  0  0  0  0  0
    8.5197    5.6509    8.3650 H   0  0  0  0  0  0  0  0  0  0  0  0
   10.0946    7.0602    9.9444 H   0  0  0  0  0  0  0  0  0  0  0  0
  1  3  2  0
  1  4  1  0
  2  4  1  0
  1  5  1  0
  2  6  1  0
  5  6  1  0
  6  7  2  3
  5  8  1  0
  4 10  1  6
 10 11  2  0
 11 12  1  0
 12 13  2  0
 13 14  1  0
 10 15  1  0
 14 15  2  0
  9 16  2  0
  9 17  1  0
 14 18  1  0
 17 18  2  0
 18 19  1  0
 16 20  1  0
 19 20  2  0
  2 21  1  0
  7 22  1  0
  8 23  1  0
  8 24  1  0
  8 25  1  0
 11 26  1  0
 12 27  1  0
 13 28  1  0
 15 29  1  0
 16 30  1  0
 17 31  1  0
 19 32  1  0
 20 33  1  0
 34 35  2  0
 35 36  1  0
 36 37  2  0
 37 38  1  0
 38 34  1  0
 36 39  1  0
 37 40  1  0
 38 41  1  0
  4 34  1  0
M  END
>  <attachment_point>  (335) 
21

>  <score>  (335) 
<NA>

$$$$
4djw
     RDKit          3D

 45 48  0  0  0  0  0  0  0  0999 V2000
   22.4950   11.8750   22.5810 C   0  0  0  0  0  0  0  0  0  0  0  0
   22.5380    9.4930   22.4640 N   0  0  0  0  0  0  0  0  0  0  0  0
   22.3600   13.0630   22.3480 O   0  0  0  0  0  0  0  0  0  0  0  0
   22.3390   10.6680   21.5610 C   0  0  2  0  0  0  0  0  0  0  0  0
   22.7860   11.3350   23.8120 N   0  0  0  0  0  0  0  0  0  0  0  0
   22.7800    9.9140   23.7010 C   0  0  0  0  0  0  0  0  0  0  0  0
   22.9970    9.1110   24.7490 N   0  0  0  0  0  0  0  0  0  0  0  0
   23.0220   12.1410   25.0180 C   0  0  0  0  0  0  0  0  0  0  0  0
   29.1260    9.8230   21.7090 N   0  0  0  0  0  0  0  0  0  0  0  0
   23.4880   10.6920   20.5300 C   0  0  0  0  0  0  0  0  0  0  0  0
   23.2110   10.7890   19.1730 C   0  0  0  0  0  0  0  0  0  0  0  0
   24.2350   10.8650   18.2430 C   0  0  0  0  0  0  0  0  0  0  0  0
   25.5500   10.8410   18.6560 C   0  0  0  0  0  0  0  0  0  0  0  0
   25.8710   10.7460   20.0070 C   0  0  0  0  0  0  0  0  0  0  0  0
   24.8260   10.6610   20.9430 C   0  0  0  0  0  0  0  0  0  0  0  0
   29.8540   10.9130   21.4510 C   0  0  0  0  0  0  0  0  0  0  0  0
   27.8830    9.7800   21.2080 C   0  0  0  0  0  0  0  0  0  0  0  0
   27.3000   10.8010   20.4650 C   0  0  0  0  0  0  0  0  0  0  0  0
   28.0930   11.9190   20.2200 C   0  0  0  0  0  0  0  0  0  0  0  0
   29.3850   11.9780   20.7130 C   0  0  0  0  0  0  0  0  0  0  0  0
    0.0000    0.0000    0.0000 H   0  0  0  0  0  0  0  0  0  0  0  0
    0.0000    0.0000    0.0000 H   0  0  0  0  0  0  0  0  0  0  0  0
    0.0000    0.0000    0.0000 H   0  0  0  0  0  0  0  0  0  0  0  0
    0.0000    0.0000    0.0000 H   0  0  0  0  0  0  0  0  0  0  0  0
    0.0000    0.0000    0.0000 H   0  0  0  0  0  0  0  0  0  0  0  0
    0.0000    0.0000    0.0000 H   0  0  0  0  0  0  0  0  0  0  0  0
    0.0000    0.0000    0.0000 H   0  0  0  0  0  0  0  0  0  0  0  0
    0.0000    0.0000    0.0000 H   0  0  0  0  0  0  0  0  0  0  0  0
    0.0000    0.0000    0.0000 H   0  0  0  0  0  0  0  0  0  0  0  0
    0.0000    0.0000    0.0000 H   0  0  0  0  0  0  0  0  0  0  0  0
    0.0000    0.0000    0.0000 H   0  0  0  0  0  0  0  0  0  0  0  0
    0.0000    0.0000    0.0000 H   0  0  0  0  0  0  0  0  0  0  0  0
    0.0000    0.0000    0.0000 H   0  0  0  0  0  0  0  0  0  0  0  0
   10.9829    5.2449   10.6004 O   0  0  0  0  0  0  0  0  0  0  0  0
   10.2953    4.6172    9.5592 C   0  0  0  0  0  0  0  0  0  0  0  0
   10.7935    4.5672    8.2746 C   0  0  0  0  0  0  0  0  0  0  0  0
   10.1020    3.9414    7.2489 C   0  0  0  0  0  0  0  0  0  0  0  0
    8.8794    3.3399    7.4756 C   0  0  0  0  0  0  0  0  0  0  0  0
    8.3861    3.3933    8.7634 C   0  0  0  0  0  0  0  0  0  0  0  0
    6.8361    2.6327    9.0584 Cl  0  0  0  0  0  0  0  0  0  0  0  0
    9.0743    4.0173    9.7882 C   0  0  0  0  0  0  0  0  0  0  0  0
   11.7539    5.0430    8.1099 H   0  0  0  0  0  0  0  0  0  0  0  0
   10.5246    3.9187    6.2395 H   0  0  0  0  0  0  0  0  0  0  0  0
    8.3683    2.8614    6.6534 H   0  0  0  0  0  0  0  0  0  0  0  0
    8.6519    4.0373   10.7872 H   0  0  0  0  0  0  0  0  0  0  0  0
  1  3  2  0
  1  4  1  0
  2  4  1  0
  1  5  1  0
  2  6  1  0
  5  6  1  0
  6  7  2  3
  5  8  1  0
  4 10  1  0
 10 11  2  0
 11 12  1  0
 12 13  2  0
 13 14  1  0
 10 15  1  0
 14 15  2  0
  9 16  2  0
  9 17  1  0
 14 18  1  0
 17 18  2  0
 18 19  1  0
 16 20  1  0
 19 20  2  0
  2 21  1  0
  7 22  1  0
  8 23  1  0
  8 24  1  0
  8 25  1  0
 11 26  1  0
 12 27  1  0
 13 28  1  0
 15 29  1  0
 16 30  1  0
 17 31  1  0
 19 32  1  0
 20 33  1  0
 34 35  1  0
 35 36  2  0
 36 37  1  0
 37 38  2  0
 38 39  1  0
 39 40  1  0
 39 41  2  0
 41 35  1  0
 36 42  1  0
 37 43  1  0
 38 44  1  0
 41 45  1  0
  4 34  1  6
M  END
>  <attachment_point>  (336) 
21

>  <score>  (336) 
<NA>

$$$$
4djw
     RDKit          3D

 46 48  0  0  0  0  0  0  0  0999 V2000
   22.4950   11.8750   22.5810 C   0  0  0  0  0  0  0  0  0  0  0  0
   22.5380    9.4930   22.4640 N   0  0  0  0  0  0  0  0  0  0  0  0
   22.3600   13.0630   22.3480 O   0  0  0  0  0  0  0  0  0  0  0  0
   22.3390   10.6680   21.5610 C   0  0  2  0  0  0  0  0  0  0  0  0
   22.7860   11.3350   23.8120 N   0  0  0  0  0  0  0  0  0  0  0  0
   22.7800    9.9140   23.7010 C   0  0  0  0  0  0  0  0  0  0  0  0
   22.9970    9.1110   24.7490 N   0  0  0  0  0  0  0  0  0  0  0  0
   23.0220   12.1410   25.0180 C   0  0  0  0  0  0  0  0  0  0  0  0
   29.1260    9.8230   21.7090 N   0  0  0  0  0  0  0  0  0  0  0  0
   23.4880   10.6920   20.5300 C   0  0  0  0  0  0  0  0  0  0  0  0
   23.2110   10.7890   19.1730 C   0  0  0  0  0  0  0  0  0  0  0  0
   24.2350   10.8650   18.2430 C   0  0  0  0  0  0  0  0  0  0  0  0
   25.5500   10.8410   18.6560 C   0  0  0  0  0  0  0  0  0  0  0  0
   25.8710   10.7460   20.0070 C   0  0  0  0  0  0  0  0  0  0  0  0
   24.8260   10.6610   20.9430 C   0  0  0  0  0  0  0  0  0  0  0  0
   29.8540   10.9130   21.4510 C   0  0  0  0  0  0  0  0  0  0  0  0
   27.8830    9.7800   21.2080 C   0  0  0  0  0  0  0  0  0  0  0  0
   27.3000   10.8010   20.4650 C   0  0  0  0  0  0  0  0  0  0  0  0
   28.0930   11.9190   20.2200 C   0  0  0  0  0  0  0  0  0  0  0  0
   29.3850   11.9780   20.7130 C   0  0  0  0  0  0  0  0  0  0  0  0
    0.0000    0.0000    0.0000 H   0  0  0  0  0  0  0  0  0  0  0  0
    0.0000    0.0000    0.0000 H   0  0  0  0  0  0  0  0  0  0  0  0
    0.0000    0.0000    0.0000 H   0  0  0  0  0  0  0  0  0  0  0  0
    0.0000    0.0000    0.0000 H   0  0  0  0  0  0  0  0  0  0  0  0
    0.0000    0.0000    0.0000 H   0  0  0  0  0  0  0  0  0  0  0  0
    0.0000    0.0000    0.0000 H   0  0  0  0  0  0  0  0  0  0  0  0
    0.0000    0.0000    0.0000 H   0  0  0  0  0  0  0  0  0  0  0  0
    0.0000    0.0000    0.0000 H   0  0  0  0  0  0  0  0  0  0  0  0
    0.0000    0.0000    0.0000 H   0  0  0  0  0  0  0  0  0  0  0  0
    0.0000    0.0000    0.0000 H   0  0  0  0  0  0  0  0  0  0  0  0
    0.0000    0.0000    0.0000 H   0  0  0  0  0  0  0  0  0  0  0  0
    0.0000    0.0000    0.0000 H   0  0  0  0  0  0  0  0  0  0  0  0
    0.0000    0.0000    0.0000 H   0  0  0  0  0  0  0  0  0  0  0  0
   10.8203    5.1672   10.4434 N   0  0  0  0  0  0  0  0  0  0  0  0
    9.5836    5.7366   10.5716 C   0  0  0  0  0  0  0  0  0  0  0  0
    9.2748    6.6194   11.4476 O   0  0  0  0  0  0  0  0  0  0  0  0
    8.5203    5.3400    9.6721 N   0  0  0  0  0  0  0  0  0  0  0  0
    7.2063    5.9332    9.7951 C   0  0  0  0  0  0  0  0  0  0  0  0
    6.6243    5.6630   11.1440 C   0  0  0  0  0  0  0  0  0  0  0  0
   11.1778    4.4999    9.8335 H   0  0  0  0  0  0  0  0  0  0  0  0
    8.7848    4.6214    8.9647 H   0  0  0  0  0  0  0  0  0  0  0  0
    7.2444    7.0153    9.5528 H   0  0  0  0  0  0  0  0  0  0  0  0
    6.5883    5.4720    8.9726 H   0  0  0  0  0  0  0  0  0  0  0  0
    7.3983    5.2814   11.8387 H   0  0  0  0  0  0  0  0  0  0  0  0
    5.8153    4.9000   11.0127 H   0  0  0  0  0  0  0  0  0  0  0  0
    6.1476    6.6036   11.5387 H   0  0  0  0  0  0  0  0  0  0  0  0
  1  3  2  0
  1  4  1  0
  2  4  1  0
  1  5  1  0
  2  6  1  0
  5  6  1  0
  6  7  2  3
  5  8  1  0
  4 10  1  0
 10 11  2  0
 11 12  1  0
 12 13  2  0
 13 14  1  0
 10 15  1  0
 14 15  2  0
  9 16  2  0
  9 17  1  0
 14 18  1  0
 17 18  2  0
 18 19  1  0
 16 20  1  0
 19 20  2  0
  2 21  1  0
  7 22  1  0
  8 23  1  0
  8 24  1  0
  8 25  1  0
 11 26  1  0
 12 27  1  0
 13 28  1  0
 15 29  1  0
 16 30  1  0
 17 31  1  0
 19 32  1  0
 20 33  1  0
 34 35  1  0
 35 36  2  0
 35 37  1  0
 37 38  1  0
 38 39  1  0
 34 40  1  0
 37 41  1  0
 38 42  1  0
 38 43  1  0
 39 44  1  0
 39 45  1  0
 39 46  1  0
  4 34  1  6
M  END
>  <attachment_point>  (337) 
21

>  <score>  (337) 
<NA>

$$$$
4djw
     RDKit          3D

 50 53  0  0  0  0  0  0  0  0999 V2000
   22.4950   11.8750   22.5810 C   0  0  0  0  0  0  0  0  0  0  0  0
   22.5380    9.4930   22.4640 N   0  0  0  0  0  0  0  0  0  0  0  0
   22.3600   13.0630   22.3480 O   0  0  0  0  0  0  0  0  0  0  0  0
   22.3390   10.6680   21.5610 C   0  0  2  0  0  0  0  0  0  0  0  0
   22.7860   11.3350   23.8120 N   0  0  0  0  0  0  0  0  0  0  0  0
   22.7800    9.9140   23.7010 C   0  0  0  0  0  0  0  0  0  0  0  0
   22.9970    9.1110   24.7490 N   0  0  0  0  0  0  0  0  0  0  0  0
   23.0220   12.1410   25.0180 C   0  0  0  0  0  0  0  0  0  0  0  0
   29.1260    9.8230   21.7090 N   0  0  0  0  0  0  0  0  0  0  0  0
   23.4880   10.6920   20.5300 C   0  0  0  0  0  0  0  0  0  0  0  0
   23.2110   10.7890   19.1730 C   0  0  0  0  0  0  0  0  0  0  0  0
   24.2350   10.8650   18.2430 C   0  0  0  0  0  0  0  0  0  0  0  0
   25.5500   10.8410   18.6560 C   0  0  0  0  0  0  0  0  0  0  0  0
   25.8710   10.7460   20.0070 C   0  0  0  0  0  0  0  0  0  0  0  0
   24.8260   10.6610   20.9430 C   0  0  0  0  0  0  0  0  0  0  0  0
   29.8540   10.9130   21.4510 C   0  0  0  0  0  0  0  0  0  0  0  0
   27.8830    9.7800   21.2080 C   0  0  0  0  0  0  0  0  0  0  0  0
   27.3000   10.8010   20.4650 C   0  0  0  0  0  0  0  0  0  0  0  0
   28.0930   11.9190   20.2200 C   0  0  0  0  0  0  0  0  0  0  0  0
   29.3850   11.9780   20.7130 C   0  0  0  0  0  0  0  0  0  0  0  0
    0.0000    0.0000    0.0000 H   0  0  0  0  0  0  0  0  0  0  0  0
    0.0000    0.0000    0.0000 H   0  0  0  0  0  0  0  0  0  0  0  0
    0.0000    0.0000    0.0000 H   0  0  0  0  0  0  0  0  0  0  0  0
    0.0000    0.0000    0.0000 H   0  0  0  0  0  0  0  0  0  0  0  0
    0.0000    0.0000    0.0000 H   0  0  0  0  0  0  0  0  0  0  0  0
    0.0000    0.0000    0.0000 H   0  0  0  0  0  0  0  0  0  0  0  0
    0.0000    0.0000    0.0000 H   0  0  0  0  0  0  0  0  0  0  0  0
    0.0000    0.0000    0.0000 H   0  0  0  0  0  0  0  0  0  0  0  0
    0.0000    0.0000    0.0000 H   0  0  0  0  0  0  0  0  0  0  0  0
    0.0000    0.0000    0.0000 H   0  0  0  0  0  0  0  0  0  0  0  0
    0.0000    0.0000    0.0000 H   0  0  0  0  0  0  0  0  0  0  0  0
    0.0000    0.0000    0.0000 H   0  0  0  0  0  0  0  0  0  0  0  0
    0.0000    0.0000    0.0000 H   0  0  0  0  0  0  0  0  0  0  0  0
   10.8749    5.1933   10.4962 C   0  0  0  0  0  0  0  0  0  0  0  0
   10.0438    6.0548    9.8122 C   0  0  0  0  0  0  0  0  0  0  0  0
    9.1043    5.5757    8.9025 C   0  0  0  0  0  0  0  0  0  0  0  0
    8.9914    4.2251    8.6719 C   0  0  0  0  0  0  0  0  0  0  0  0
    8.0021    3.7221    7.7141 C   0  0  0  0  0  0  0  0  0  0  0  0
    7.2605    4.5392    7.1084 O   0  0  0  0  0  0  0  0  0  0  0  0
    7.8381    2.3938    7.4384 O   0  0  0  0  0  0  0  0  0  0  0  0
    6.8810    1.8879    6.5099 C   0  0  0  0  0  0  0  0  0  0  0  0
    9.8375    3.3923    9.3723 C   0  0  0  0  0  0  0  0  0  0  0  0
   10.7759    3.8342   10.2774 C   0  0  0  0  0  0  0  0  0  0  0  0
   10.1444    7.1135   10.0042 H   0  0  0  0  0  0  0  0  0  0  0  0
    8.4538    6.2465    8.3668 H   0  0  0  0  0  0  0  0  0  0  0  0
    5.9830    1.6189    7.1079 H   0  0  0  0  0  0  0  0  0  0  0  0
    7.2882    0.9140    6.1304 H   0  0  0  0  0  0  0  0  0  0  0  0
    6.6807    2.5856    5.6960 H   0  0  0  0  0  0  0  0  0  0  0  0
    9.7381    2.3239    9.1805 H   0  0  0  0  0  0  0  0  0  0  0  0
   11.4343    3.1483   10.8191 H   0  0  0  0  0  0  0  0  0  0  0  0
  1  3  2  0
  1  4  1  0
  2  4  1  0
  1  5  1  0
  2  6  1  0
  5  6  1  0
  6  7  2  3
  5  8  1  0
  4 10  1  6
 10 11  2  0
 11 12  1  0
 12 13  2  0
 13 14  1  0
 10 15  1  0
 14 15  2  0
  9 16  2  0
  9 17  1  0
 14 18  1  0
 17 18  2  0
 18 19  1  0
 16 20  1  0
 19 20  2  0
  2 21  1  0
  7 22  1  0
  8 23  1  0
  8 24  1  0
  8 25  1  0
 11 26  1  0
 12 27  1  0
 13 28  1  0
 15 29  1  0
 16 30  1  0
 17 31  1  0
 19 32  1  0
 20 33  1  0
 34 35  2  0
 35 36  1  0
 36 37  2  0
 37 38  1  0
 38 39  2  0
 38 40  1  0
 40 41  1  0
 37 42  1  0
 42 43  2  0
 43 34  1  0
 35 44  1  0
 36 45  1  0
 41 46  1  0
 41 47  1  0
 41 48  1  0
 42 49  1  0
 43 50  1  0
  4 34  1  0
M  END
>  <attachment_point>  (338) 
21

>  <score>  (338) 
<NA>

$$$$
4djw
     RDKit          3D

 41 43  0  0  0  0  0  0  0  0999 V2000
   22.4950   11.8750   22.5810 C   0  0  0  0  0  0  0  0  0  0  0  0
   22.5380    9.4930   22.4640 N   0  0  0  0  0  0  0  0  0  0  0  0
   22.3600   13.0630   22.3480 O   0  0  0  0  0  0  0  0  0  0  0  0
   22.3390   10.6680   21.5610 C   0  0  2  0  0  0  0  0  0  0  0  0
   22.7860   11.3350   23.8120 N   0  0  0  0  0  0  0  0  0  0  0  0
   22.7800    9.9140   23.7010 C   0  0  0  0  0  0  0  0  0  0  0  0
   22.9970    9.1110   24.7490 N   0  0  0  0  0  0  0  0  0  0  0  0
   23.0220   12.1410   25.0180 C   0  0  0  0  0  0  0  0  0  0  0  0
   29.1260    9.8230   21.7090 N   0  0  0  0  0  0  0  0  0  0  0  0
   23.4880   10.6920   20.5300 C   0  0  0  0  0  0  0  0  0  0  0  0
   23.2110   10.7890   19.1730 C   0  0  0  0  0  0  0  0  0  0  0  0
   24.2350   10.8650   18.2430 C   0  0  0  0  0  0  0  0  0  0  0  0
   25.5500   10.8410   18.6560 C   0  0  0  0  0  0  0  0  0  0  0  0
   25.8710   10.7460   20.0070 C   0  0  0  0  0  0  0  0  0  0  0  0
   24.8260   10.6610   20.9430 C   0  0  0  0  0  0  0  0  0  0  0  0
   29.8540   10.9130   21.4510 C   0  0  0  0  0  0  0  0  0  0  0  0
   27.8830    9.7800   21.2080 C   0  0  0  0  0  0  0  0  0  0  0  0
   27.3000   10.8010   20.4650 C   0  0  0  0  0  0  0  0  0  0  0  0
   28.0930   11.9190   20.2200 C   0  0  0  0  0  0  0  0  0  0  0  0
   29.3850   11.9780   20.7130 C   0  0  0  0  0  0  0  0  0  0  0  0
    0.0000    0.0000    0.0000 H   0  0  0  0  0  0  0  0  0  0  0  0
    0.0000    0.0000    0.0000 H   0  0  0  0  0  0  0  0  0  0  0  0
    0.0000    0.0000    0.0000 H   0  0  0  0  0  0  0  0  0  0  0  0
    0.0000    0.0000    0.0000 H   0  0  0  0  0  0  0  0  0  0  0  0
    0.0000    0.0000    0.0000 H   0  0  0  0  0  0  0  0  0  0  0  0
    0.0000    0.0000    0.0000 H   0  0  0  0  0  0  0  0  0  0  0  0
    0.0000    0.0000    0.0000 H   0  0  0  0  0  0  0  0  0  0  0  0
    0.0000    0.0000    0.0000 H   0  0  0  0  0  0  0  0  0  0  0  0
    0.0000    0.0000    0.0000 H   0  0  0  0  0  0  0  0  0  0  0  0
    0.0000    0.0000    0.0000 H   0  0  0  0  0  0  0  0  0  0  0  0
    0.0000    0.0000    0.0000 H   0  0  0  0  0  0  0  0  0  0  0  0
    0.0000    0.0000    0.0000 H   0  0  0  0  0  0  0  0  0  0  0  0
    0.0000    0.0000    0.0000 H   0  0  0  0  0  0  0  0  0  0  0  0
   10.8742    5.1930   10.4955 C   0  0  0  0  0  0  0  0  0  0  0  0
   11.0949    6.0295    9.2930 C   0  0  0  0  0  0  0  0  0  0  0  0
   12.3466    5.9315    8.6471 N   0  0  0  0  0  0  0  0  0  0  0  0
   10.2141    6.8008    8.8526 O   0  0  0  0  0  0  0  0  0  0  0  0
   10.9986    4.1321   10.2644 H   0  0  0  0  0  0  0  0  0  0  0  0
    9.8733    5.4120   10.9559 H   0  0  0  0  0  0  0  0  0  0  0  0
   12.5194    5.0767    8.0824 H   0  0  0  0  0  0  0  0  0  0  0  0
   13.0670    6.7134    8.7517 H   0  0  0  0  0  0  0  0  0  0  0  0
  1  3  2  0
  1  4  1  0
  2  4  1  0
  1  5  1  0
  2  6  1  0
  5  6  1  0
  6  7  2  3
  5  8  1  0
  4 10  1  0
 10 11  2  0
 11 12  1  0
 12 13  2  0
 13 14  1  0
 10 15  1  0
 14 15  2  0
  9 16  2  0
  9 17  1  0
 14 18  1  0
 17 18  2  0
 18 19  1  0
 16 20  1  0
 19 20  2  0
  2 21  1  0
  7 22  1  0
  8 23  1  0
  8 24  1  0
  8 25  1  0
 11 26  1  0
 12 27  1  0
 13 28  1  0
 15 29  1  0
 16 30  1  0
 17 31  1  0
 19 32  1  0
 20 33  1  0
 34 35  1  0
 35 36  1  0
 35 37  2  0
 34 38  1  0
 34 39  1  0
 36 40  1  0
 36 41  1  0
  4 34  1  6
M  END
>  <attachment_point>  (339) 
21

>  <score>  (339) 
<NA>

$$$$
4djw
     RDKit          3D

 48 51  0  0  0  0  0  0  0  0999 V2000
   22.4950   11.8750   22.5810 C   0  0  0  0  0  0  0  0  0  0  0  0
   22.5380    9.4930   22.4640 N   0  0  0  0  0  0  0  0  0  0  0  0
   22.3600   13.0630   22.3480 O   0  0  0  0  0  0  0  0  0  0  0  0
   22.3390   10.6680   21.5610 C   0  0  2  0  0  0  0  0  0  0  0  0
   22.7860   11.3350   23.8120 N   0  0  0  0  0  0  0  0  0  0  0  0
   22.7800    9.9140   23.7010 C   0  0  0  0  0  0  0  0  0  0  0  0
   22.9970    9.1110   24.7490 N   0  0  0  0  0  0  0  0  0  0  0  0
   23.0220   12.1410   25.0180 C   0  0  0  0  0  0  0  0  0  0  0  0
   29.1260    9.8230   21.7090 N   0  0  0  0  0  0  0  0  0  0  0  0
   23.4880   10.6920   20.5300 C   0  0  0  0  0  0  0  0  0  0  0  0
   23.2110   10.7890   19.1730 C   0  0  0  0  0  0  0  0  0  0  0  0
   24.2350   10.8650   18.2430 C   0  0  0  0  0  0  0  0  0  0  0  0
   25.5500   10.8410   18.6560 C   0  0  0  0  0  0  0  0  0  0  0  0
   25.8710   10.7460   20.0070 C   0  0  0  0  0  0  0  0  0  0  0  0
   24.8260   10.6610   20.9430 C   0  0  0  0  0  0  0  0  0  0  0  0
   29.8540   10.9130   21.4510 C   0  0  0  0  0  0  0  0  0  0  0  0
   27.8830    9.7800   21.2080 C   0  0  0  0  0  0  0  0  0  0  0  0
   27.3000   10.8010   20.4650 C   0  0  0  0  0  0  0  0  0  0  0  0
   28.0930   11.9190   20.2200 C   0  0  0  0  0  0  0  0  0  0  0  0
   29.3850   11.9780   20.7130 C   0  0  0  0  0  0  0  0  0  0  0  0
    0.0000    0.0000    0.0000 H   0  0  0  0  0  0  0  0  0  0  0  0
    0.0000    0.0000    0.0000 H   0  0  0  0  0  0  0  0  0  0  0  0
    0.0000    0.0000    0.0000 H   0  0  0  0  0  0  0  0  0  0  0  0
    0.0000    0.0000    0.0000 H   0  0  0  0  0  0  0  0  0  0  0  0
    0.0000    0.0000    0.0000 H   0  0  0  0  0  0  0  0  0  0  0  0
    0.0000    0.0000    0.0000 H   0  0  0  0  0  0  0  0  0  0  0  0
    0.0000    0.0000    0.0000 H   0  0  0  0  0  0  0  0  0  0  0  0
    0.0000    0.0000    0.0000 H   0  0  0  0  0  0  0  0  0  0  0  0
    0.0000    0.0000    0.0000 H   0  0  0  0  0  0  0  0  0  0  0  0
    0.0000    0.0000    0.0000 H   0  0  0  0  0  0  0  0  0  0  0  0
    0.0000    0.0000    0.0000 H   0  0  0  0  0  0  0  0  0  0  0  0
    0.0000    0.0000    0.0000 H   0  0  0  0  0  0  0  0  0  0  0  0
    0.0000    0.0000    0.0000 H   0  0  0  0  0  0  0  0  0  0  0  0
   10.8687    5.1903   10.4901 C   0  0  0  0  0  0  0  0  0  0  0  0
   10.8002    5.8034    9.2556 C   0  0  0  0  0  0  0  0  0  0  0  0
    9.8516    5.3325    8.3722 C   0  0  0  0  0  0  0  0  0  0  0  0
    9.0005    4.2880    8.7051 C   0  0  0  0  0  0  0  0  0  0  0  0
    9.0753    3.6812    9.9397 C   0  0  0  0  0  0  0  0  0  0  0  0
    8.1979    2.5823   10.3233 C   0  0  0  0  0  0  0  0  0  0  0  0
    7.2038    2.0563    9.4564 N   0  0  0  0  0  0  0  0  0  0  0  0
    8.3022    2.0621   11.4550 O   0  0  0  0  0  0  0  0  0  0  0  0
   10.0206    4.1460   10.8282 C   0  0  0  0  0  0  0  0  0  0  0  0
   11.4487    6.6228    8.9591 H   0  0  0  0  0  0  0  0  0  0  0  0
    9.7740    5.7954    7.3924 H   0  0  0  0  0  0  0  0  0  0  0  0
    8.2465    3.9093    8.0108 H   0  0  0  0  0  0  0  0  0  0  0  0
    7.4423    1.9147    8.4525 H   0  0  0  0  0  0  0  0  0  0  0  0
    6.2763    1.8366    9.8742 H   0  0  0  0  0  0  0  0  0  0  0  0
   10.0940    3.6771   11.8107 H   0  0  0  0  0  0  0  0  0  0  0  0
  1  3  2  0
  1  4  1  0
  2  4  1  0
  1  5  1  0
  2  6  1  0
  5  6  1  0
  6  7  2  3
  5  8  1  0
  4 10  1  6
 10 11  2  0
 11 12  1  0
 12 13  2  0
 13 14  1  0
 10 15  1  0
 14 15  2  0
  9 16  2  0
  9 17  1  0
 14 18  1  0
 17 18  2  0
 18 19  1  0
 16 20  1  0
 19 20  2  0
  2 21  1  0
  7 22  1  0
  8 23  1  0
  8 24  1  0
  8 25  1  0
 11 26  1  0
 12 27  1  0
 13 28  1  0
 15 29  1  0
 16 30  1  0
 17 31  1  0
 19 32  1  0
 20 33  1  0
 34 35  2  0
 35 36  1  0
 36 37  2  0
 37 38  1  0
 38 39  1  0
 39 40  1  0
 39 41  2  0
 38 42  2  0
 42 34  1  0
 35 43  1  0
 36 44  1  0
 37 45  1  0
 40 46  1  0
 40 47  1  0
 42 48  1  0
  4 34  1  0
M  END
>  <attachment_point>  (340) 
21

>  <score>  (340) 
<NA>

$$$$
4djw
     RDKit          3D

 49 51  0  0  0  0  0  0  0  0999 V2000
   22.4950   11.8750   22.5810 C   0  0  0  0  0  0  0  0  0  0  0  0
   22.5380    9.4930   22.4640 N   0  0  0  0  0  0  0  0  0  0  0  0
   22.3600   13.0630   22.3480 O   0  0  0  0  0  0  0  0  0  0  0  0
   22.3390   10.6680   21.5610 C   0  0  2  0  0  0  0  0  0  0  0  0
   22.7860   11.3350   23.8120 N   0  0  0  0  0  0  0  0  0  0  0  0
   22.7800    9.9140   23.7010 C   0  0  0  0  0  0  0  0  0  0  0  0
   22.9970    9.1110   24.7490 N   0  0  0  0  0  0  0  0  0  0  0  0
   23.0220   12.1410   25.0180 C   0  0  0  0  0  0  0  0  0  0  0  0
   29.1260    9.8230   21.7090 N   0  0  0  0  0  0  0  0  0  0  0  0
   23.4880   10.6920   20.5300 C   0  0  0  0  0  0  0  0  0  0  0  0
   23.2110   10.7890   19.1730 C   0  0  0  0  0  0  0  0  0  0  0  0
   24.2350   10.8650   18.2430 C   0  0  0  0  0  0  0  0  0  0  0  0
   25.5500   10.8410   18.6560 C   0  0  0  0  0  0  0  0  0  0  0  0
   25.8710   10.7460   20.0070 C   0  0  0  0  0  0  0  0  0  0  0  0
   24.8260   10.6610   20.9430 C   0  0  0  0  0  0  0  0  0  0  0  0
   29.8540   10.9130   21.4510 C   0  0  0  0  0  0  0  0  0  0  0  0
   27.8830    9.7800   21.2080 C   0  0  0  0  0  0  0  0  0  0  0  0
   27.3000   10.8010   20.4650 C   0  0  0  0  0  0  0  0  0  0  0  0
   28.0930   11.9190   20.2200 C   0  0  0  0  0  0  0  0  0  0  0  0
   29.3850   11.9780   20.7130 C   0  0  0  0  0  0  0  0  0  0  0  0
    0.0000    0.0000    0.0000 H   0  0  0  0  0  0  0  0  0  0  0  0
    0.0000    0.0000    0.0000 H   0  0  0  0  0  0  0  0  0  0  0  0
    0.0000    0.0000    0.0000 H   0  0  0  0  0  0  0  0  0  0  0  0
    0.0000    0.0000    0.0000 H   0  0  0  0  0  0  0  0  0  0  0  0
    0.0000    0.0000    0.0000 H   0  0  0  0  0  0  0  0  0  0  0  0
    0.0000    0.0000    0.0000 H   0  0  0  0  0  0  0  0  0  0  0  0
    0.0000    0.0000    0.0000 H   0  0  0  0  0  0  0  0  0  0  0  0
    0.0000    0.0000    0.0000 H   0  0  0  0  0  0  0  0  0  0  0  0
    0.0000    0.0000    0.0000 H   0  0  0  0  0  0  0  0  0  0  0  0
    0.0000    0.0000    0.0000 H   0  0  0  0  0  0  0  0  0  0  0  0
    0.0000    0.0000    0.0000 H   0  0  0  0  0  0  0  0  0  0  0  0
    0.0000    0.0000    0.0000 H   0  0  0  0  0  0  0  0  0  0  0  0
    0.0000    0.0000    0.0000 H   0  0  0  0  0  0  0  0  0  0  0  0
   10.8902    5.2006   10.5109 N   0  0  0  0  0  0  0  0  0  0  0  0
   10.4119    3.9111   11.0273 C   0  0  0  0  0  0  0  0  0  0  0  0
    9.1883    3.2911    9.8793 P   0  0  0  0  0  5  0  0  0  0  0  0
    8.2746    4.4183    9.4504 O   0  0  0  0  0  0  0  0  0  0  0  0
   10.0401    2.7564    8.4927 O   0  0  0  0  0  0  0  0  0  0  0  0
    8.2756    2.0309   10.4369 O   0  0  0  0  0  0  0  0  0  0  0  0
    9.8106    4.1753   12.6845 P   0  0  0  0  0  5  0  0  0  0  0  0
    9.6610    5.6706   12.9852 O   0  0  0  0  0  0  0  0  0  0  0  0
   10.9550    3.5979   13.8148 O   0  0  0  0  0  0  0  0  0  0  0  0
    8.3342    3.4611   13.0030 O   0  0  0  0  0  0  0  0  0  0  0  0
   10.1031    5.9099   10.6133 H   0  0  0  0  0  0  0  0  0  0  0  0
   11.2783    3.2325   11.0187 H   0  0  0  0  0  0  0  0  0  0  0  0
   10.8522    3.3374    8.3460 H   0  0  0  0  0  0  0  0  0  0  0  0
    8.3718    1.7880   11.3663 H   0  0  0  0  0  0  0  0  0  0  0  0
   11.7916    3.3330   13.3935 H   0  0  0  0  0  0  0  0  0  0  0  0
    7.7382    4.0302   13.5325 H   0  0  0  0  0  0  0  0  0  0  0  0
  1  3  2  0
  1  4  1  0
  2  4  1  0
  1  5  1  0
  2  6  1  0
  5  6  1  0
  6  7  2  3
  5  8  1  0
  4 10  1  0
 10 11  2  0
 11 12  1  0
 12 13  2  0
 13 14  1  0
 10 15  1  0
 14 15  2  0
  9 16  2  0
  9 17  1  0
 14 18  1  0
 17 18  2  0
 18 19  1  0
 16 20  1  0
 19 20  2  0
  2 21  1  0
  7 22  1  0
  8 23  1  0
  8 24  1  0
  8 25  1  0
 11 26  1  0
 12 27  1  0
 13 28  1  0
 15 29  1  0
 16 30  1  0
 17 31  1  0
 19 32  1  0
 20 33  1  0
 34 35  1  0
 35 36  1  0
 36 37  2  0
 36 38  1  0
 36 39  1  0
 35 40  1  0
 40 41  2  0
 40 42  1  0
 40 43  1  0
 34 44  1  0
 35 45  1  0
 38 46  1  0
 39 47  1  0
 42 48  1  0
 43 49  1  0
  4 34  1  6
M  END
>  <attachment_point>  (341) 
21

>  <score>  (341) 
<NA>

$$$$
4djw
     RDKit          3D

 45 48  0  0  0  0  0  0  0  0999 V2000
   22.4950   11.8750   22.5810 C   0  0  0  0  0  0  0  0  0  0  0  0
   22.5380    9.4930   22.4640 N   0  0  0  0  0  0  0  0  0  0  0  0
   22.3600   13.0630   22.3480 O   0  0  0  0  0  0  0  0  0  0  0  0
   22.3390   10.6680   21.5610 C   0  0  2  0  0  0  0  0  0  0  0  0
   22.7860   11.3350   23.8120 N   0  0  0  0  0  0  0  0  0  0  0  0
   22.7800    9.9140   23.7010 C   0  0  0  0  0  0  0  0  0  0  0  0
   22.9970    9.1110   24.7490 N   0  0  0  0  0  0  0  0  0  0  0  0
   23.0220   12.1410   25.0180 C   0  0  0  0  0  0  0  0  0  0  0  0
   29.1260    9.8230   21.7090 N   0  0  0  0  0  0  0  0  0  0  0  0
   23.4880   10.6920   20.5300 C   0  0  0  0  0  0  0  0  0  0  0  0
   23.2110   10.7890   19.1730 C   0  0  0  0  0  0  0  0  0  0  0  0
   24.2350   10.8650   18.2430 C   0  0  0  0  0  0  0  0  0  0  0  0
   25.5500   10.8410   18.6560 C   0  0  0  0  0  0  0  0  0  0  0  0
   25.8710   10.7460   20.0070 C   0  0  0  0  0  0  0  0  0  0  0  0
   24.8260   10.6610   20.9430 C   0  0  0  0  0  0  0  0  0  0  0  0
   29.8540   10.9130   21.4510 C   0  0  0  0  0  0  0  0  0  0  0  0
   27.8830    9.7800   21.2080 C   0  0  0  0  0  0  0  0  0  0  0  0
   27.3000   10.8010   20.4650 C   0  0  0  0  0  0  0  0  0  0  0  0
   28.0930   11.9190   20.2200 C   0  0  0  0  0  0  0  0  0  0  0  0
   29.3850   11.9780   20.7130 C   0  0  0  0  0  0  0  0  0  0  0  0
    0.0000    0.0000    0.0000 H   0  0  0  0  0  0  0  0  0  0  0  0
    0.0000    0.0000    0.0000 H   0  0  0  0  0  0  0  0  0  0  0  0
    0.0000    0.0000    0.0000 H   0  0  0  0  0  0  0  0  0  0  0  0
    0.0000    0.0000    0.0000 H   0  0  0  0  0  0  0  0  0  0  0  0
    0.0000    0.0000    0.0000 H   0  0  0  0  0  0  0  0  0  0  0  0
    0.0000    0.0000    0.0000 H   0  0  0  0  0  0  0  0  0  0  0  0
    0.0000    0.0000    0.0000 H   0  0  0  0  0  0  0  0  0  0  0  0
    0.0000    0.0000    0.0000 H   0  0  0  0  0  0  0  0  0  0  0  0
    0.0000    0.0000    0.0000 H   0  0  0  0  0  0  0  0  0  0  0  0
    0.0000    0.0000    0.0000 H   0  0  0  0  0  0  0  0  0  0  0  0
    0.0000    0.0000    0.0000 H   0  0  0  0  0  0  0  0  0  0  0  0
    0.0000    0.0000    0.0000 H   0  0  0  0  0  0  0  0  0  0  0  0
    0.0000    0.0000    0.0000 H   0  0  0  0  0  0  0  0  0  0  0  0
   10.8863    5.1987   10.5071 N   0  0  0  0  0  0  0  0  0  0  0  0
   11.0872    5.3143    9.1044 C   0  0  0  0  0  0  0  0  0  0  0  0
   11.7001    4.3423    8.3447 C   0  0  0  0  0  0  0  0  0  0  0  0
   11.8820    4.4864    6.9700 C   0  0  0  0  0  0  0  0  0  0  0  0
   11.4471    5.6020    6.3780 N   0  0  0  0  0  0  0  0  0  0  0  0
   10.8392    6.5819    7.0901 C   0  0  0  0  0  0  0  0  0  0  0  0
   10.6571    6.4454    8.4458 C   0  0  0  0  0  0  0  0  0  0  0  0
   10.0290    4.7744   10.9003 H   0  0  0  0  0  0  0  0  0  0  0  0
   12.0554    3.4289    8.8335 H   0  0  0  0  0  0  0  0  0  0  0  0
   12.3766    3.6696    6.4429 H   0  0  0  0  0  0  0  0  0  0  0  0
   10.4819    7.4913    6.6227 H   0  0  0  0  0  0  0  0  0  0  0  0
   10.1719    7.2140    9.0498 H   0  0  0  0  0  0  0  0  0  0  0  0
  1  3  2  0
  1  4  1  0
  2  4  1  0
  1  5  1  0
  2  6  1  0
  5  6  1  0
  6  7  2  3
  5  8  1  0
  4 10  1  0
 10 11  2  0
 11 12  1  0
 12 13  2  0
 13 14  1  0
 10 15  1  0
 14 15  2  0
  9 16  2  0
  9 17  1  0
 14 18  1  0
 17 18  2  0
 18 19  1  0
 16 20  1  0
 19 20  2  0
  2 21  1  0
  7 22  1  0
  8 23  1  0
  8 24  1  0
  8 25  1  0
 11 26  1  0
 12 27  1  0
 13 28  1  0
 15 29  1  0
 16 30  1  0
 17 31  1  0
 19 32  1  0
 20 33  1  0
 34 35  1  0
 35 36  2  0
 36 37  1  0
 37 38  2  0
 38 39  1  0
 39 40  2  0
 40 35  1  0
 34 41  1  0
 36 42  1  0
 37 43  1  0
 39 44  1  0
 40 45  1  0
  4 34  1  6
M  END
>  <attachment_point>  (342) 
21

>  <score>  (342) 
<NA>

$$$$
4djw
     RDKit          3D

 42 45  0  0  0  0  0  0  0  0999 V2000
   22.4950   11.8750   22.5810 C   0  0  0  0  0  0  0  0  0  0  0  0
   22.5380    9.4930   22.4640 N   0  0  0  0  0  0  0  0  0  0  0  0
   22.3600   13.0630   22.3480 O   0  0  0  0  0  0  0  0  0  0  0  0
   22.3390   10.6680   21.5610 C   0  0  2  0  0  0  0  0  0  0  0  0
   22.7860   11.3350   23.8120 N   0  0  0  0  0  0  0  0  0  0  0  0
   22.7800    9.9140   23.7010 C   0  0  0  0  0  0  0  0  0  0  0  0
   22.9970    9.1110   24.7490 N   0  0  0  0  0  0  0  0  0  0  0  0
   23.0220   12.1410   25.0180 C   0  0  0  0  0  0  0  0  0  0  0  0
   29.1260    9.8230   21.7090 N   0  0  0  0  0  0  0  0  0  0  0  0
   23.4880   10.6920   20.5300 C   0  0  0  0  0  0  0  0  0  0  0  0
   23.2110   10.7890   19.1730 C   0  0  0  0  0  0  0  0  0  0  0  0
   24.2350   10.8650   18.2430 C   0  0  0  0  0  0  0  0  0  0  0  0
   25.5500   10.8410   18.6560 C   0  0  0  0  0  0  0  0  0  0  0  0
   25.8710   10.7460   20.0070 C   0  0  0  0  0  0  0  0  0  0  0  0
   24.8260   10.6610   20.9430 C   0  0  0  0  0  0  0  0  0  0  0  0
   29.8540   10.9130   21.4510 C   0  0  0  0  0  0  0  0  0  0  0  0
   27.8830    9.7800   21.2080 C   0  0  0  0  0  0  0  0  0  0  0  0
   27.3000   10.8010   20.4650 C   0  0  0  0  0  0  0  0  0  0  0  0
   28.0930   11.9190   20.2200 C   0  0  0  0  0  0  0  0  0  0  0  0
   29.3850   11.9780   20.7130 C   0  0  0  0  0  0  0  0  0  0  0  0
    0.0000    0.0000    0.0000 H   0  0  0  0  0  0  0  0  0  0  0  0
    0.0000    0.0000    0.0000 H   0  0  0  0  0  0  0  0  0  0  0  0
    0.0000    0.0000    0.0000 H   0  0  0  0  0  0  0  0  0  0  0  0
    0.0000    0.0000    0.0000 H   0  0  0  0  0  0  0  0  0  0  0  0
    0.0000    0.0000    0.0000 H   0  0  0  0  0  0  0  0  0  0  0  0
    0.0000    0.0000    0.0000 H   0  0  0  0  0  0  0  0  0  0  0  0
    0.0000    0.0000    0.0000 H   0  0  0  0  0  0  0  0  0  0  0  0
    0.0000    0.0000    0.0000 H   0  0  0  0  0  0  0  0  0  0  0  0
    0.0000    0.0000    0.0000 H   0  0  0  0  0  0  0  0  0  0  0  0
    0.0000    0.0000    0.0000 H   0  0  0  0  0  0  0  0  0  0  0  0
    0.0000    0.0000    0.0000 H   0  0  0  0  0  0  0  0  0  0  0  0
    0.0000    0.0000    0.0000 H   0  0  0  0  0  0  0  0  0  0  0  0
    0.0000    0.0000    0.0000 H   0  0  0  0  0  0  0  0  0  0  0  0
   10.8772    5.1944   10.4984 N   0  0  0  0  0  0  0  0  0  0  0  0
   10.0345    5.9823    9.8152 C   0  0  0  0  0  0  0  0  0  0  0  0
    9.2699    5.1680    9.0282 C   0  0  0  0  0  0  0  0  0  0  0  0
    9.6685    3.8913    9.2525 C   0  0  0  0  0  0  0  0  0  0  0  0
   10.6799    3.9078   10.1777 C   0  0  0  0  0  0  0  0  0  0  0  0
    9.9877    7.0444    9.8886 H   0  0  0  0  0  0  0  0  0  0  0  0
    8.4947    5.4851    8.3552 H   0  0  0  0  0  0  0  0  0  0  0  0
    9.2839    2.9892    8.8029 H   0  0  0  0  0  0  0  0  0  0  0  0
   11.2232    3.0846   10.5836 H   0  0  0  0  0  0  0  0  0  0  0  0
  1  3  2  0
  1  4  1  0
  2  4  1  0
  1  5  1  0
  2  6  1  0
  5  6  1  0
  6  7  2  3
  5  8  1  0
  4 10  1  0
 10 11  2  0
 11 12  1  0
 12 13  2  0
 13 14  1  0
 10 15  1  0
 14 15  2  0
  9 16  2  0
  9 17  1  0
 14 18  1  0
 17 18  2  0
 18 19  1  0
 16 20  1  0
 19 20  2  0
  2 21  1  0
  7 22  1  0
  8 23  1  0
  8 24  1  0
  8 25  1  0
 11 26  1  0
 12 27  1  0
 13 28  1  0
 15 29  1  0
 16 30  1  0
 17 31  1  0
 19 32  1  0
 20 33  1  0
 34 35  1  0
 35 36  2  0
 36 37  1  0
 37 38  2  0
 38 34  1  0
 35 39  1  0
 36 40  1  0
 37 41  1  0
 38 42  1  0
  4 34  1  6
M  END
>  <attachment_point>  (343) 
21

>  <score>  (343) 
<NA>

$$$$
4djw
     RDKit          3D

 54 57  0  0  0  0  0  0  0  0999 V2000
   22.4950   11.8750   22.5810 C   0  0  0  0  0  0  0  0  0  0  0  0
   22.5380    9.4930   22.4640 N   0  0  0  0  0  0  0  0  0  0  0  0
   22.3600   13.0630   22.3480 O   0  0  0  0  0  0  0  0  0  0  0  0
   22.3390   10.6680   21.5610 C   0  0  2  0  0  0  0  0  0  0  0  0
   22.7860   11.3350   23.8120 N   0  0  0  0  0  0  0  0  0  0  0  0
   22.7800    9.9140   23.7010 C   0  0  0  0  0  0  0  0  0  0  0  0
   22.9970    9.1110   24.7490 N   0  0  0  0  0  0  0  0  0  0  0  0
   23.0220   12.1410   25.0180 C   0  0  0  0  0  0  0  0  0  0  0  0
   29.1260    9.8230   21.7090 N   0  0  0  0  0  0  0  0  0  0  0  0
   23.4880   10.6920   20.5300 C   0  0  0  0  0  0  0  0  0  0  0  0
   23.2110   10.7890   19.1730 C   0  0  0  0  0  0  0  0  0  0  0  0
   24.2350   10.8650   18.2430 C   0  0  0  0  0  0  0  0  0  0  0  0
   25.5500   10.8410   18.6560 C   0  0  0  0  0  0  0  0  0  0  0  0
   25.8710   10.7460   20.0070 C   0  0  0  0  0  0  0  0  0  0  0  0
   24.8260   10.6610   20.9430 C   0  0  0  0  0  0  0  0  0  0  0  0
   29.8540   10.9130   21.4510 C   0  0  0  0  0  0  0  0  0  0  0  0
   27.8830    9.7800   21.2080 C   0  0  0  0  0  0  0  0  0  0  0  0
   27.3000   10.8010   20.4650 C   0  0  0  0  0  0  0  0  0  0  0  0
   28.0930   11.9190   20.2200 C   0  0  0  0  0  0  0  0  0  0  0  0
   29.3850   11.9780   20.7130 C   0  0  0  0  0  0  0  0  0  0  0  0
    0.0000    0.0000    0.0000 H   0  0  0  0  0  0  0  0  0  0  0  0
    0.0000    0.0000    0.0000 H   0  0  0  0  0  0  0  0  0  0  0  0
    0.0000    0.0000    0.0000 H   0  0  0  0  0  0  0  0  0  0  0  0
    0.0000    0.0000    0.0000 H   0  0  0  0  0  0  0  0  0  0  0  0
    0.0000    0.0000    0.0000 H   0  0  0  0  0  0  0  0  0  0  0  0
    0.0000    0.0000    0.0000 H   0  0  0  0  0  0  0  0  0  0  0  0
    0.0000    0.0000    0.0000 H   0  0  0  0  0  0  0  0  0  0  0  0
    0.0000    0.0000    0.0000 H   0  0  0  0  0  0  0  0  0  0  0  0
    0.0000    0.0000    0.0000 H   0  0  0  0  0  0  0  0  0  0  0  0
    0.0000    0.0000    0.0000 H   0  0  0  0  0  0  0  0  0  0  0  0
    0.0000    0.0000    0.0000 H   0  0  0  0  0  0  0  0  0  0  0  0
    0.0000    0.0000    0.0000 H   0  0  0  0  0  0  0  0  0  0  0  0
    0.0000    0.0000    0.0000 H   0  0  0  0  0  0  0  0  0  0  0  0
   10.8400    5.1767   10.4625 C   0  0  0  0  0  0  0  0  0  0  0  0
   10.0243    6.3688   10.1882 C   0  0  0  0  0  0  0  0  0  0  0  0
   10.3038    7.0293    8.8523 C   0  0  0  0  0  0  0  0  0  0  0  0
   10.2552    5.9898    7.8507 N   0  0  0  0  0  0  0  0  0  0  0  0
    9.3267    6.1317    6.7895 C   0  0  0  0  0  0  0  0  0  0  0  0
    9.2962    5.0427    5.7665 C   0  0  0  0  0  0  0  0  0  0  0  0
    8.5580    7.1303    6.7073 O   0  0  0  0  0  0  0  0  0  0  0  0
   11.1365    4.8759    7.9731 C   0  0  0  0  0  0  0  0  0  0  0  0
   11.4989    4.4940    9.3595 C   0  0  0  0  0  0  0  0  0  0  0  0
   10.2954    4.4895   11.1534 H   0  0  0  0  0  0  0  0  0  0  0  0
    8.9360    6.0693   10.2396 H   0  0  0  0  0  0  0  0  0  0  0  0
   10.1197    7.1751   10.9540 H   0  0  0  0  0  0  0  0  0  0  0  0
    9.5259    7.7978    8.7045 H   0  0  0  0  0  0  0  0  0  0  0  0
   11.3196    7.4288    8.8723 H   0  0  0  0  0  0  0  0  0  0  0  0
    8.7057    5.4186    4.9086 H   0  0  0  0  0  0  0  0  0  0  0  0
   10.3363    4.8178    5.4754 H   0  0  0  0  0  0  0  0  0  0  0  0
    8.8489    4.1254    6.2182 H   0  0  0  0  0  0  0  0  0  0  0  0
   10.6603    4.0225    7.4030 H   0  0  0  0  0  0  0  0  0  0  0  0
   12.0513    5.1170    7.3533 H   0  0  0  0  0  0  0  0  0  0  0  0
   12.6220    4.5805    9.4662 H   0  0  0  0  0  0  0  0  0  0  0  0
   11.3216    3.3816    9.4599 H   0  0  0  0  0  0  0  0  0  0  0  0
  1  3  2  0
  1  4  1  0
  2  4  1  0
  1  5  1  0
  2  6  1  0
  5  6  1  0
  6  7  2  3
  5  8  1  0
  4 10  1  0
 10 11  2  0
 11 12  1  0
 12 13  2  0
 13 14  1  0
 10 15  1  0
 14 15  2  0
  9 16  2  0
  9 17  1  0
 14 18  1  0
 17 18  2  0
 18 19  1  0
 16 20  1  0
 19 20  2  0
  2 21  1  0
  7 22  1  0
  8 23  1  0
  8 24  1  0
  8 25  1  0
 11 26  1  0
 12 27  1  0
 13 28  1  0
 15 29  1  0
 16 30  1  0
 17 31  1  0
 19 32  1  0
 20 33  1  0
 34 35  1  0
 35 36  1  0
 36 37  1  0
 37 38  1  0
 38 39  1  0
 38 40  2  0
 37 41  1  0
 41 42  1  0
 42 34  1  0
 34 43  1  0
 35 44  1  0
 35 45  1  0
 36 46  1  0
 36 47  1  0
 39 48  1  0
 39 49  1  0
 39 50  1  0
 41 51  1  0
 41 52  1  0
 42 53  1  0
 42 54  1  0
  4 34  1  6
M  END
>  <attachment_point>  (344) 
21

>  <score>  (344) 
<NA>

$$$$
4djw
     RDKit          3D

 47 50  0  0  0  0  0  0  0  0999 V2000
   22.4950   11.8750   22.5810 C   0  0  0  0  0  0  0  0  0  0  0  0
   22.5380    9.4930   22.4640 N   0  0  0  0  0  0  0  0  0  0  0  0
   22.3600   13.0630   22.3480 O   0  0  0  0  0  0  0  0  0  0  0  0
   22.3390   10.6680   21.5610 C   0  0  2  0  0  0  0  0  0  0  0  0
   22.7860   11.3350   23.8120 N   0  0  0  0  0  0  0  0  0  0  0  0
   22.7800    9.9140   23.7010 C   0  0  0  0  0  0  0  0  0  0  0  0
   22.9970    9.1110   24.7490 N   0  0  0  0  0  0  0  0  0  0  0  0
   23.0220   12.1410   25.0180 C   0  0  0  0  0  0  0  0  0  0  0  0
   29.1260    9.8230   21.7090 N   0  0  0  0  0  0  0  0  0  0  0  0
   23.4880   10.6920   20.5300 C   0  0  0  0  0  0  0  0  0  0  0  0
   23.2110   10.7890   19.1730 C   0  0  0  0  0  0  0  0  0  0  0  0
   24.2350   10.8650   18.2430 C   0  0  0  0  0  0  0  0  0  0  0  0
   25.5500   10.8410   18.6560 C   0  0  0  0  0  0  0  0  0  0  0  0
   25.8710   10.7460   20.0070 C   0  0  0  0  0  0  0  0  0  0  0  0
   24.8260   10.6610   20.9430 C   0  0  0  0  0  0  0  0  0  0  0  0
   29.8540   10.9130   21.4510 C   0  0  0  0  0  0  0  0  0  0  0  0
   27.8830    9.7800   21.2080 C   0  0  0  0  0  0  0  0  0  0  0  0
   27.3000   10.8010   20.4650 C   0  0  0  0  0  0  0  0  0  0  0  0
   28.0930   11.9190   20.2200 C   0  0  0  0  0  0  0  0  0  0  0  0
   29.3850   11.9780   20.7130 C   0  0  0  0  0  0  0  0  0  0  0  0
    0.0000    0.0000    0.0000 H   0  0  0  0  0  0  0  0  0  0  0  0
    0.0000    0.0000    0.0000 H   0  0  0  0  0  0  0  0  0  0  0  0
    0.0000    0.0000    0.0000 H   0  0  0  0  0  0  0  0  0  0  0  0
    0.0000    0.0000    0.0000 H   0  0  0  0  0  0  0  0  0  0  0  0
    0.0000    0.0000    0.0000 H   0  0  0  0  0  0  0  0  0  0  0  0
    0.0000    0.0000    0.0000 H   0  0  0  0  0  0  0  0  0  0  0  0
    0.0000    0.0000    0.0000 H   0  0  0  0  0  0  0  0  0  0  0  0
    0.0000    0.0000    0.0000 H   0  0  0  0  0  0  0  0  0  0  0  0
    0.0000    0.0000    0.0000 H   0  0  0  0  0  0  0  0  0  0  0  0
    0.0000    0.0000    0.0000 H   0  0  0  0  0  0  0  0  0  0  0  0
    0.0000    0.0000    0.0000 H   0  0  0  0  0  0  0  0  0  0  0  0
    0.0000    0.0000    0.0000 H   0  0  0  0  0  0  0  0  0  0  0  0
    0.0000    0.0000    0.0000 H   0  0  0  0  0  0  0  0  0  0  0  0
   10.7500    5.1337   10.3756 C   0  0  0  0  0  0  0  0  0  0  0  0
   11.2826    5.8556    9.2930 N   0  0  0  0  0  0  0  0  0  0  0  0
   11.0348    7.0737    8.8389 N   0  0  0  0  0  0  0  0  0  0  0  0
   11.7766    7.3527    7.7790 C   0  0  0  0  0  0  0  0  0  0  0  0
   11.7532    8.5430    7.0735 O   0  0  0  0  0  0  0  0  0  0  0  0
   10.9073    9.6228    7.4207 C   0  0  0  0  0  0  0  0  0  0  0  0
   12.5049    6.2998    7.5559 O   0  0  0  0  0  0  0  0  0  0  0  0
   12.2311    5.3774    8.4522 C   0  0  0  0  0  0  0  0  0  0  0  0
   12.7992    4.2511    8.4662 O   0  0  0  0  0  0  0  0  0  0  0  0
    9.9892    5.5694   10.9783 H   0  0  0  0  0  0  0  0  0  0  0  0
   11.1294    4.1615   10.5879 H   0  0  0  0  0  0  0  0  0  0  0  0
   10.7299    9.5683    8.5123 H   0  0  0  0  0  0  0  0  0  0  0  0
    9.9160    9.5105    6.9140 H   0  0  0  0  0  0  0  0  0  0  0  0
   11.3744   10.6035    7.1987 H   0  0  0  0  0  0  0  0  0  0  0  0
  1  3  2  0
  1  4  1  0
  2  4  1  0
  1  5  1  0
  2  6  1  0
  5  6  1  0
  6  7  2  3
  5  8  1  0
  4 10  1  0
 10 11  2  0
 11 12  1  0
 12 13  2  0
 13 14  1  0
 10 15  1  0
 14 15  2  0
  9 16  2  0
  9 17  1  0
 14 18  1  0
 17 18  2  0
 18 19  1  0
 16 20  1  0
 19 20  2  0
  2 21  1  0
  7 22  1  0
  8 23  1  0
  8 24  1  0
  8 25  1  0
 11 26  1  0
 12 27  1  0
 13 28  1  0
 15 29  1  0
 16 30  1  0
 17 31  1  0
 19 32  1  0
 20 33  1  0
 34 35  1  0
 35 36  1  0
 36 37  2  0
 37 38  1  0
 38 39  1  0
 37 40  1  0
 40 41  1  0
 41 42  2  0
 41 35  1  0
 34 43  1  0
 34 44  1  0
 39 45  1  0
 39 46  1  0
 39 47  1  0
  4 34  1  6
M  END
>  <attachment_point>  (345) 
21

>  <score>  (345) 
<NA>

$$$$
4djw
     RDKit          3D

 43 45  0  0  0  0  0  0  0  0999 V2000
   22.4950   11.8750   22.5810 C   0  0  0  0  0  0  0  0  0  0  0  0
   22.5380    9.4930   22.4640 N   0  0  0  0  0  0  0  0  0  0  0  0
   22.3600   13.0630   22.3480 O   0  0  0  0  0  0  0  0  0  0  0  0
   22.3390   10.6680   21.5610 C   0  0  2  0  0  0  0  0  0  0  0  0
   22.7860   11.3350   23.8120 N   0  0  0  0  0  0  0  0  0  0  0  0
   22.7800    9.9140   23.7010 C   0  0  0  0  0  0  0  0  0  0  0  0
   22.9970    9.1110   24.7490 N   0  0  0  0  0  0  0  0  0  0  0  0
   23.0220   12.1410   25.0180 C   0  0  0  0  0  0  0  0  0  0  0  0
   29.1260    9.8230   21.7090 N   0  0  0  0  0  0  0  0  0  0  0  0
   23.4880   10.6920   20.5300 C   0  0  0  0  0  0  0  0  0  0  0  0
   23.2110   10.7890   19.1730 C   0  0  0  0  0  0  0  0  0  0  0  0
   24.2350   10.8650   18.2430 C   0  0  0  0  0  0  0  0  0  0  0  0
   25.5500   10.8410   18.6560 C   0  0  0  0  0  0  0  0  0  0  0  0
   25.8710   10.7460   20.0070 C   0  0  0  0  0  0  0  0  0  0  0  0
   24.8260   10.6610   20.9430 C   0  0  0  0  0  0  0  0  0  0  0  0
   29.8540   10.9130   21.4510 C   0  0  0  0  0  0  0  0  0  0  0  0
   27.8830    9.7800   21.2080 C   0  0  0  0  0  0  0  0  0  0  0  0
   27.3000   10.8010   20.4650 C   0  0  0  0  0  0  0  0  0  0  0  0
   28.0930   11.9190   20.2200 C   0  0  0  0  0  0  0  0  0  0  0  0
   29.3850   11.9780   20.7130 C   0  0  0  0  0  0  0  0  0  0  0  0
    0.0000    0.0000    0.0000 H   0  0  0  0  0  0  0  0  0  0  0  0
    0.0000    0.0000    0.0000 H   0  0  0  0  0  0  0  0  0  0  0  0
    0.0000    0.0000    0.0000 H   0  0  0  0  0  0  0  0  0  0  0  0
    0.0000    0.0000    0.0000 H   0  0  0  0  0  0  0  0  0  0  0  0
    0.0000    0.0000    0.0000 H   0  0  0  0  0  0  0  0  0  0  0  0
    0.0000    0.0000    0.0000 H   0  0  0  0  0  0  0  0  0  0  0  0
    0.0000    0.0000    0.0000 H   0  0  0  0  0  0  0  0  0  0  0  0
    0.0000    0.0000    0.0000 H   0  0  0  0  0  0  0  0  0  0  0  0
    0.0000    0.0000    0.0000 H   0  0  0  0  0  0  0  0  0  0  0  0
    0.0000    0.0000    0.0000 H   0  0  0  0  0  0  0  0  0  0  0  0
    0.0000    0.0000    0.0000 H   0  0  0  0  0  0  0  0  0  0  0  0
    0.0000    0.0000    0.0000 H   0  0  0  0  0  0  0  0  0  0  0  0
    0.0000    0.0000    0.0000 H   0  0  0  0  0  0  0  0  0  0  0  0
   10.8877    5.1994   10.5085 C   0  0  0  0  0  0  0  0  0  0  0  0
   11.3746    3.7151    9.6434 S   0  0  0  0  0  6  0  0  0  0  0  0
   12.8609    4.0370    8.7577 C   0  0  0  0  0  0  0  0  0  0  0  0
   10.2871    3.3565    8.7086 O   0  0  0  0  0  0  0  0  0  0  0  0
   11.6469    2.5978   10.6120 O   0  0  0  0  0  0  0  0  0  0  0  0
    9.8739    5.0932   10.9346 H   0  0  0  0  0  0  0  0  0  0  0  0
   10.7914    5.9880    9.7069 H   0  0  0  0  0  0  0  0  0  0  0  0
   13.7374    3.9379    9.4218 H   0  0  0  0  0  0  0  0  0  0  0  0
   12.9220    3.3266    7.8830 H   0  0  0  0  0  0  0  0  0  0  0  0
   12.7681    5.0412    8.2943 H   0  0  0  0  0  0  0  0  0  0  0  0
  1  3  2  0
  1  4  1  0
  2  4  1  0
  1  5  1  0
  2  6  1  0
  5  6  1  0
  6  7  2  3
  5  8  1  0
  4 10  1  0
 10 11  2  0
 11 12  1  0
 12 13  2  0
 13 14  1  0
 10 15  1  0
 14 15  2  0
  9 16  2  0
  9 17  1  0
 14 18  1  0
 17 18  2  0
 18 19  1  0
 16 20  1  0
 19 20  2  0
  2 21  1  0
  7 22  1  0
  8 23  1  0
  8 24  1  0
  8 25  1  0
 11 26  1  0
 12 27  1  0
 13 28  1  0
 15 29  1  0
 16 30  1  0
 17 31  1  0
 19 32  1  0
 20 33  1  0
 34 35  1  0
 35 36  1  0
 35 37  2  0
 35 38  2  0
 34 39  1  0
 34 40  1  0
 36 41  1  0
 36 42  1  0
 36 43  1  0
  4 34  1  6
M  END
>  <attachment_point>  (346) 
21

>  <score>  (346) 
<NA>

$$$$
4djw
     RDKit          3D

 56 60  0  0  0  0  0  0  0  0999 V2000
   22.4950   11.8750   22.5810 C   0  0  0  0  0  0  0  0  0  0  0  0
   22.5380    9.4930   22.4640 N   0  0  0  0  0  0  0  0  0  0  0  0
   22.3600   13.0630   22.3480 O   0  0  0  0  0  0  0  0  0  0  0  0
   22.3390   10.6680   21.5610 C   0  0  2  0  0  0  0  0  0  0  0  0
   22.7860   11.3350   23.8120 N   0  0  0  0  0  0  0  0  0  0  0  0
   22.7800    9.9140   23.7010 C   0  0  0  0  0  0  0  0  0  0  0  0
   22.9970    9.1110   24.7490 N   0  0  0  0  0  0  0  0  0  0  0  0
   23.0220   12.1410   25.0180 C   0  0  0  0  0  0  0  0  0  0  0  0
   29.1260    9.8230   21.7090 N   0  0  0  0  0  0  0  0  0  0  0  0
   23.4880   10.6920   20.5300 C   0  0  0  0  0  0  0  0  0  0  0  0
   23.2110   10.7890   19.1730 C   0  0  0  0  0  0  0  0  0  0  0  0
   24.2350   10.8650   18.2430 C   0  0  0  0  0  0  0  0  0  0  0  0
   25.5500   10.8410   18.6560 C   0  0  0  0  0  0  0  0  0  0  0  0
   25.8710   10.7460   20.0070 C   0  0  0  0  0  0  0  0  0  0  0  0
   24.8260   10.6610   20.9430 C   0  0  0  0  0  0  0  0  0  0  0  0
   29.8540   10.9130   21.4510 C   0  0  0  0  0  0  0  0  0  0  0  0
   27.8830    9.7800   21.2080 C   0  0  0  0  0  0  0  0  0  0  0  0
   27.3000   10.8010   20.4650 C   0  0  0  0  0  0  0  0  0  0  0  0
   28.0930   11.9190   20.2200 C   0  0  0  0  0  0  0  0  0  0  0  0
   29.3850   11.9780   20.7130 C   0  0  0  0  0  0  0  0  0  0  0  0
    0.0000    0.0000    0.0000 H   0  0  0  0  0  0  0  0  0  0  0  0
    0.0000    0.0000    0.0000 H   0  0  0  0  0  0  0  0  0  0  0  0
    0.0000    0.0000    0.0000 H   0  0  0  0  0  0  0  0  0  0  0  0
    0.0000    0.0000    0.0000 H   0  0  0  0  0  0  0  0  0  0  0  0
    0.0000    0.0000    0.0000 H   0  0  0  0  0  0  0  0  0  0  0  0
    0.0000    0.0000    0.0000 H   0  0  0  0  0  0  0  0  0  0  0  0
    0.0000    0.0000    0.0000 H   0  0  0  0  0  0  0  0  0  0  0  0
    0.0000    0.0000    0.0000 H   0  0  0  0  0  0  0  0  0  0  0  0
    0.0000    0.0000    0.0000 H   0  0  0  0  0  0  0  0  0  0  0  0
    0.0000    0.0000    0.0000 H   0  0  0  0  0  0  0  0  0  0  0  0
    0.0000    0.0000    0.0000 H   0  0  0  0  0  0  0  0  0  0  0  0
    0.0000    0.0000    0.0000 H   0  0  0  0  0  0  0  0  0  0  0  0
    0.0000    0.0000    0.0000 H   0  0  0  0  0  0  0  0  0  0  0  0
   10.8968    5.2038   10.5173 C   0  0  0  0  0  0  0  0  0  0  0  0
   10.6109    3.7788   10.6059 N   0  0  0  0  0  0  0  0  0  0  0  0
    9.6192    3.3883    9.6260 C   0  0  1  0  0  0  0  0  0  0  0  0
    9.1619    1.9830    9.5206 C   0  0  0  0  0  0  0  0  0  0  0  0
    8.2185    3.1069    9.9953 C   0  0  1  0  0  0  0  0  0  0  0  0
    7.7772    2.9181   11.3767 C   0  0  0  0  0  0  0  0  0  0  0  0
    8.6030    2.4627   12.3920 C   0  0  0  0  0  0  0  0  0  0  0  0
    8.1054    2.3160   13.6615 C   0  0  0  0  0  0  0  0  0  0  0  0
    6.8106    2.5966   14.0059 C   0  0  0  0  0  0  0  0  0  0  0  0
    5.9748    3.0536   12.9958 C   0  0  0  0  0  0  0  0  0  0  0  0
    6.4726    3.2016   11.7195 C   0  0  0  0  0  0  0  0  0  0  0  0
   11.3339    5.3485    9.4853 H   0  0  0  0  0  0  0  0  0  0  0  0
    9.9690    5.8092   10.5160 H   0  0  0  0  0  0  0  0  0  0  0  0
   11.5063    3.2564   10.4960 H   0  0  0  0  0  0  0  0  0  0  0  0
    9.7721    3.8979    8.6502 H   0  0  0  0  0  0  0  0  0  0  0  0
    9.5667    1.2859   10.2530 H   0  0  0  0  0  0  0  0  0  0  0  0
    8.8726    1.5606    8.5360 H   0  0  0  0  0  0  0  0  0  0  0  0
    7.4330    3.4442    9.2935 H   0  0  0  0  0  0  0  0  0  0  0  0
    9.6227    2.2413   12.1192 H   0  0  0  0  0  0  0  0  0  0  0  0
    8.8061    1.9523   14.4218 H   0  0  0  0  0  0  0  0  0  0  0  0
    6.4311    2.4747   15.0189 H   0  0  0  0  0  0  0  0  0  0  0  0
    4.9548    3.2722   13.2774 H   0  0  0  0  0  0  0  0  0  0  0  0
    5.7914    3.5652   10.9358 H   0  0  0  0  0  0  0  0  0  0  0  0
  1  3  2  0
  1  4  1  0
  2  4  1  0
  1  5  1  0
  2  6  1  0
  5  6  1  0
  6  7  2  3
  5  8  1  0
  4 10  1  0
 10 11  2  0
 11 12  1  0
 12 13  2  0
 13 14  1  0
 10 15  1  0
 14 15  2  0
  9 16  2  0
  9 17  1  0
 14 18  1  0
 17 18  2  0
 18 19  1  0
 16 20  1  0
 19 20  2  0
  2 21  1  0
  7 22  1  0
  8 23  1  0
  8 24  1  0
  8 25  1  0
 11 26  1  0
 12 27  1  0
 13 28  1  0
 15 29  1  0
 16 30  1  0
 17 31  1  0
 19 32  1  0
 20 33  1  0
 34 35  1  0
 35 36  1  0
 36 37  1  0
 37 38  1  0
 38 39  1  0
 39 40  2  0
 40 41  1  0
 41 42  2  0
 42 43  1  0
 43 44  2  0
 38 36  1  0
 44 39  1  0
 34 45  1  0
 34 46  1  0
 35 47  1  0
 36 48  1  6
 37 49  1  0
 37 50  1  0
 38 51  1  6
 40 52  1  0
 41 53  1  0
 42 54  1  0
 43 55  1  0
 44 56  1  0
  4 34  1  6
M  END
>  <attachment_point>  (347) 
21

>  <score>  (347) 
<NA>

$$$$
4djw
     RDKit          3D

 54 58  0  0  0  0  0  0  0  0999 V2000
   22.4950   11.8750   22.5810 C   0  0  0  0  0  0  0  0  0  0  0  0
   22.5380    9.4930   22.4640 N   0  0  0  0  0  0  0  0  0  0  0  0
   22.3600   13.0630   22.3480 O   0  0  0  0  0  0  0  0  0  0  0  0
   22.3390   10.6680   21.5610 C   0  0  2  0  0  0  0  0  0  0  0  0
   22.7860   11.3350   23.8120 N   0  0  0  0  0  0  0  0  0  0  0  0
   22.7800    9.9140   23.7010 C   0  0  0  0  0  0  0  0  0  0  0  0
   22.9970    9.1110   24.7490 N   0  0  0  0  0  0  0  0  0  0  0  0
   23.0220   12.1410   25.0180 C   0  0  0  0  0  0  0  0  0  0  0  0
   29.1260    9.8230   21.7090 N   0  0  0  0  0  0  0  0  0  0  0  0
   23.4880   10.6920   20.5300 C   0  0  0  0  0  0  0  0  0  0  0  0
   23.2110   10.7890   19.1730 C   0  0  0  0  0  0  0  0  0  0  0  0
   24.2350   10.8650   18.2430 C   0  0  0  0  0  0  0  0  0  0  0  0
   25.5500   10.8410   18.6560 C   0  0  0  0  0  0  0  0  0  0  0  0
   25.8710   10.7460   20.0070 C   0  0  0  0  0  0  0  0  0  0  0  0
   24.8260   10.6610   20.9430 C   0  0  0  0  0  0  0  0  0  0  0  0
   29.8540   10.9130   21.4510 C   0  0  0  0  0  0  0  0  0  0  0  0
   27.8830    9.7800   21.2080 C   0  0  0  0  0  0  0  0  0  0  0  0
   27.3000   10.8010   20.4650 C   0  0  0  0  0  0  0  0  0  0  0  0
   28.0930   11.9190   20.2200 C   0  0  0  0  0  0  0  0  0  0  0  0
   29.3850   11.9780   20.7130 C   0  0  0  0  0  0  0  0  0  0  0  0
    0.0000    0.0000    0.0000 H   0  0  0  0  0  0  0  0  0  0  0  0
    0.0000    0.0000    0.0000 H   0  0  0  0  0  0  0  0  0  0  0  0
    0.0000    0.0000    0.0000 H   0  0  0  0  0  0  0  0  0  0  0  0
    0.0000    0.0000    0.0000 H   0  0  0  0  0  0  0  0  0  0  0  0
    0.0000    0.0000    0.0000 H   0  0  0  0  0  0  0  0  0  0  0  0
    0.0000    0.0000    0.0000 H   0  0  0  0  0  0  0  0  0  0  0  0
    0.0000    0.0000    0.0000 H   0  0  0  0  0  0  0  0  0  0  0  0
    0.0000    0.0000    0.0000 H   0  0  0  0  0  0  0  0  0  0  0  0
    0.0000    0.0000    0.0000 H   0  0  0  0  0  0  0  0  0  0  0  0
    0.0000    0.0000    0.0000 H   0  0  0  0  0  0  0  0  0  0  0  0
    0.0000    0.0000    0.0000 H   0  0  0  0  0  0  0  0  0  0  0  0
    0.0000    0.0000    0.0000 H   0  0  0  0  0  0  0  0  0  0  0  0
    0.0000    0.0000    0.0000 H   0  0  0  0  0  0  0  0  0  0  0  0
   10.8515    5.1822   10.4736 C   0  0  0  0  0  0  0  0  0  0  0  0
   10.2946    3.9532   10.7201 C   0  0  0  0  0  0  0  0  0  0  0  0
    9.3471    3.5129    9.7946 C   0  0  0  0  0  0  0  0  0  0  0  0
    8.9742    4.2460    8.6916 C   0  0  0  0  0  0  0  0  0  0  0  0
    9.5591    5.4754    8.4829 C   0  0  0  0  0  0  0  0  0  0  0  0
    9.2140    6.3097    7.3335 C   0  0  0  0  0  0  0  0  0  0  0  0
    7.9531    6.2921    6.7969 C   0  0  0  0  0  0  0  0  0  0  0  0
    7.7082    7.1115    5.7110 C   0  0  0  0  0  0  0  0  0  0  0  0
    8.6735    7.9266    5.1658 C   0  0  0  0  0  0  0  0  0  0  0  0
    9.9572    7.9474    5.7083 C   0  0  0  0  0  0  0  0  0  0  0  0
   10.1796    7.1218    6.7920 C   0  0  0  0  0  0  0  0  0  0  0  0
   10.5152    5.9467    9.3952 C   0  0  0  0  0  0  0  0  0  0  0  0
   10.5709    3.3511   11.5843 H   0  0  0  0  0  0  0  0  0  0  0  0
    8.8658    2.5453    9.9310 H   0  0  0  0  0  0  0  0  0  0  0  0
    8.2379    3.9010    7.9757 H   0  0  0  0  0  0  0  0  0  0  0  0
    7.1607    5.6573    7.2028 H   0  0  0  0  0  0  0  0  0  0  0  0
    6.7194    7.1074    5.2749 H   0  0  0  0  0  0  0  0  0  0  0  0
    8.4838    8.5709    4.3103 H   0  0  0  0  0  0  0  0  0  0  0  0
   10.7398    8.5815    5.2984 H   0  0  0  0  0  0  0  0  0  0  0  0
   11.1634    7.1172    7.2341 H   0  0  0  0  0  0  0  0  0  0  0  0
   11.0010    6.9014    9.2750 H   0  0  0  0  0  0  0  0  0  0  0  0
  1  3  2  0
  1  4  1  0
  2  4  1  0
  1  5  1  0
  2  6  1  0
  5  6  1  0
  6  7  2  3
  5  8  1  0
  4 10  1  6
 10 11  2  0
 11 12  1  0
 12 13  2  0
 13 14  1  0
 10 15  1  0
 14 15  2  0
  9 16  2  0
  9 17  1  0
 14 18  1  0
 17 18  2  0
 18 19  1  0
 16 20  1  0
 19 20  2  0
  2 21  1  0
  7 22  1  0
  8 23  1  0
  8 24  1  0
  8 25  1  0
 11 26  1  0
 12 27  1  0
 13 28  1  0
 15 29  1  0
 16 30  1  0
 17 31  1  0
 19 32  1  0
 20 33  1  0
 34 35  2  0
 35 36  1  0
 36 37  2  0
 37 38  1  0
 38 39  1  0
 39 40  2  0
 40 41  1  0
 41 42  2  0
 42 43  1  0
 43 44  2  0
 38 45  2  0
 45 34  1  0
 44 39  1  0
 35 46  1  0
 36 47  1  0
 37 48  1  0
 40 49  1  0
 41 50  1  0
 42 51  1  0
 43 52  1  0
 44 53  1  0
 45 54  1  0
  4 34  1  0
M  END
>  <attachment_point>  (348) 
21

>  <score>  (348) 
<NA>

$$$$
4djw
     RDKit          3D

 43 45  0  0  0  0  0  0  0  0999 V2000
   22.4950   11.8750   22.5810 C   0  0  0  0  0  0  0  0  0  0  0  0
   22.5380    9.4930   22.4640 N   0  0  0  0  0  0  0  0  0  0  0  0
   22.3600   13.0630   22.3480 O   0  0  0  0  0  0  0  0  0  0  0  0
   22.3390   10.6680   21.5610 C   0  0  2  0  0  0  0  0  0  0  0  0
   22.7860   11.3350   23.8120 N   0  0  0  0  0  0  0  0  0  0  0  0
   22.7800    9.9140   23.7010 C   0  0  0  0  0  0  0  0  0  0  0  0
   22.9970    9.1110   24.7490 N   0  0  0  0  0  0  0  0  0  0  0  0
   23.0220   12.1410   25.0180 C   0  0  0  0  0  0  0  0  0  0  0  0
   29.1260    9.8230   21.7090 N   0  0  0  0  0  0  0  0  0  0  0  0
   23.4880   10.6920   20.5300 C   0  0  0  0  0  0  0  0  0  0  0  0
   23.2110   10.7890   19.1730 C   0  0  0  0  0  0  0  0  0  0  0  0
   24.2350   10.8650   18.2430 C   0  0  0  0  0  0  0  0  0  0  0  0
   25.5500   10.8410   18.6560 C   0  0  0  0  0  0  0  0  0  0  0  0
   25.8710   10.7460   20.0070 C   0  0  0  0  0  0  0  0  0  0  0  0
   24.8260   10.6610   20.9430 C   0  0  0  0  0  0  0  0  0  0  0  0
   29.8540   10.9130   21.4510 C   0  0  0  0  0  0  0  0  0  0  0  0
   27.8830    9.7800   21.2080 C   0  0  0  0  0  0  0  0  0  0  0  0
   27.3000   10.8010   20.4650 C   0  0  0  0  0  0  0  0  0  0  0  0
   28.0930   11.9190   20.2200 C   0  0  0  0  0  0  0  0  0  0  0  0
   29.3850   11.9780   20.7130 C   0  0  0  0  0  0  0  0  0  0  0  0
    0.0000    0.0000    0.0000 H   0  0  0  0  0  0  0  0  0  0  0  0
    0.0000    0.0000    0.0000 H   0  0  0  0  0  0  0  0  0  0  0  0
    0.0000    0.0000    0.0000 H   0  0  0  0  0  0  0  0  0  0  0  0
    0.0000    0.0000    0.0000 H   0  0  0  0  0  0  0  0  0  0  0  0
    0.0000    0.0000    0.0000 H   0  0  0  0  0  0  0  0  0  0  0  0
    0.0000    0.0000    0.0000 H   0  0  0  0  0  0  0  0  0  0  0  0
    0.0000    0.0000    0.0000 H   0  0  0  0  0  0  0  0  0  0  0  0
    0.0000    0.0000    0.0000 H   0  0  0  0  0  0  0  0  0  0  0  0
    0.0000    0.0000    0.0000 H   0  0  0  0  0  0  0  0  0  0  0  0
    0.0000    0.0000    0.0000 H   0  0  0  0  0  0  0  0  0  0  0  0
    0.0000    0.0000    0.0000 H   0  0  0  0  0  0  0  0  0  0  0  0
    0.0000    0.0000    0.0000 H   0  0  0  0  0  0  0  0  0  0  0  0
    0.0000    0.0000    0.0000 H   0  0  0  0  0  0  0  0  0  0  0  0
   10.7379    5.1279   10.3640 C   0  0  0  0  0  0  0  0  0  0  0  0
    9.9393    6.3080   10.5644 C   0  0  0  0  0  0  0  0  0  0  0  0
   10.1652    7.3322    9.8714 O   0  0  0  0  0  0  0  0  0  0  0  0
    8.9392    6.3106   11.5106 O   0  0  0  0  0  0  0  0  0  0  0  0
    8.1317    7.4828   11.7254 C   0  0  0  0  0  0  0  0  0  0  0  0
   11.5532    5.1556    9.6550 H   0  0  0  0  0  0  0  0  0  0  0  0
   10.6256    4.2982   11.0230 H   0  0  0  0  0  0  0  0  0  0  0  0
    8.8280    8.3170   11.9416 H   0  0  0  0  0  0  0  0  0  0  0  0
    7.5324    7.7012   10.8124 H   0  0  0  0  0  0  0  0  0  0  0  0
    7.4868    7.2388   12.5910 H   0  0  0  0  0  0  0  0  0  0  0  0
  1  3  2  0
  1  4  1  0
  2  4  1  0
  1  5  1  0
  2  6  1  0
  5  6  1  0
  6  7  2  3
  5  8  1  0
  4 10  1  0
 10 11  2  0
 11 12  1  0
 12 13  2  0
 13 14  1  0
 10 15  1  0
 14 15  2  0
  9 16  2  0
  9 17  1  0
 14 18  1  0
 17 18  2  0
 18 19  1  0
 16 20  1  0
 19 20  2  0
  2 21  1  0
  7 22  1  0
  8 23  1  0
  8 24  1  0
  8 25  1  0
 11 26  1  0
 12 27  1  0
 13 28  1  0
 15 29  1  0
 16 30  1  0
 17 31  1  0
 19 32  1  0
 20 33  1  0
 34 35  1  0
 35 36  2  0
 35 37  1  0
 37 38  1  0
 34 39  1  0
 34 40  1  0
 38 41  1  0
 38 42  1  0
 38 43  1  0
  4 34  1  6
M  END
>  <attachment_point>  (349) 
21

>  <score>  (349) 
<NA>

$$$$
4djw
     RDKit          3D

 45 48  0  0  0  0  0  0  0  0999 V2000
   22.4950   11.8750   22.5810 C   0  0  0  0  0  0  0  0  0  0  0  0
   22.5380    9.4930   22.4640 N   0  0  0  0  0  0  0  0  0  0  0  0
   22.3600   13.0630   22.3480 O   0  0  0  0  0  0  0  0  0  0  0  0
   22.3390   10.6680   21.5610 C   0  0  2  0  0  0  0  0  0  0  0  0
   22.7860   11.3350   23.8120 N   0  0  0  0  0  0  0  0  0  0  0  0
   22.7800    9.9140   23.7010 C   0  0  0  0  0  0  0  0  0  0  0  0
   22.9970    9.1110   24.7490 N   0  0  0  0  0  0  0  0  0  0  0  0
   23.0220   12.1410   25.0180 C   0  0  0  0  0  0  0  0  0  0  0  0
   29.1260    9.8230   21.7090 N   0  0  0  0  0  0  0  0  0  0  0  0
   23.4880   10.6920   20.5300 C   0  0  0  0  0  0  0  0  0  0  0  0
   23.2110   10.7890   19.1730 C   0  0  0  0  0  0  0  0  0  0  0  0
   24.2350   10.8650   18.2430 C   0  0  0  0  0  0  0  0  0  0  0  0
   25.5500   10.8410   18.6560 C   0  0  0  0  0  0  0  0  0  0  0  0
   25.8710   10.7460   20.0070 C   0  0  0  0  0  0  0  0  0  0  0  0
   24.8260   10.6610   20.9430 C   0  0  0  0  0  0  0  0  0  0  0  0
   29.8540   10.9130   21.4510 C   0  0  0  0  0  0  0  0  0  0  0  0
   27.8830    9.7800   21.2080 C   0  0  0  0  0  0  0  0  0  0  0  0
   27.3000   10.8010   20.4650 C   0  0  0  0  0  0  0  0  0  0  0  0
   28.0930   11.9190   20.2200 C   0  0  0  0  0  0  0  0  0  0  0  0
   29.3850   11.9780   20.7130 C   0  0  0  0  0  0  0  0  0  0  0  0
    0.0000    0.0000    0.0000 H   0  0  0  0  0  0  0  0  0  0  0  0
    0.0000    0.0000    0.0000 H   0  0  0  0  0  0  0  0  0  0  0  0
    0.0000    0.0000    0.0000 H   0  0  0  0  0  0  0  0  0  0  0  0
    0.0000    0.0000    0.0000 H   0  0  0  0  0  0  0  0  0  0  0  0
    0.0000    0.0000    0.0000 H   0  0  0  0  0  0  0  0  0  0  0  0
    0.0000    0.0000    0.0000 H   0  0  0  0  0  0  0  0  0  0  0  0
    0.0000    0.0000    0.0000 H   0  0  0  0  0  0  0  0  0  0  0  0
    0.0000    0.0000    0.0000 H   0  0  0  0  0  0  0  0  0  0  0  0
    0.0000    0.0000    0.0000 H   0  0  0  0  0  0  0  0  0  0  0  0
    0.0000    0.0000    0.0000 H   0  0  0  0  0  0  0  0  0  0  0  0
    0.0000    0.0000    0.0000 H   0  0  0  0  0  0  0  0  0  0  0  0
    0.0000    0.0000    0.0000 H   0  0  0  0  0  0  0  0  0  0  0  0
    0.0000    0.0000    0.0000 H   0  0  0  0  0  0  0  0  0  0  0  0
   10.8516    5.1822   10.4737 O   0  0  0  0  0  0  0  0  0  0  0  0
   11.5912    4.4205    9.5669 C   0  0  0  0  0  0  0  0  0  0  0  0
   12.0917    4.9899    8.4125 C   0  0  0  0  0  0  0  0  0  0  0  0
   12.8214    4.2078    7.5331 C   0  0  0  0  0  0  0  0  0  0  0  0
   13.0793    2.8717    7.7502 C   0  0  0  0  0  0  0  0  0  0  0  0
   14.0188    1.9395    6.5808 Cl  0  0  0  0  0  0  0  0  0  0  0  0
   12.5794    2.3061    8.9018 C   0  0  0  0  0  0  0  0  0  0  0  0
   11.8507    3.0789    9.7842 C   0  0  0  0  0  0  0  0  0  0  0  0
   11.8962    6.0270    8.2354 H   0  0  0  0  0  0  0  0  0  0  0  0
   13.2160    4.6390    6.6316 H   0  0  0  0  0  0  0  0  0  0  0  0
   12.7683    1.2706    9.0895 H   0  0  0  0  0  0  0  0  0  0  0  0
   11.4482    2.6530   10.6966 H   0  0  0  0  0  0  0  0  0  0  0  0
  1  3  2  0
  1  4  1  0
  2  4  1  0
  1  5  1  0
  2  6  1  0
  5  6  1  0
  6  7  2  3
  5  8  1  0
  4 10  1  0
 10 11  2  0
 11 12  1  0
 12 13  2  0
 13 14  1  0
 10 15  1  0
 14 15  2  0
  9 16  2  0
  9 17  1  0
 14 18  1  0
 17 18  2  0
 18 19  1  0
 16 20  1  0
 19 20  2  0
  2 21  1  0
  7 22  1  0
  8 23  1  0
  8 24  1  0
  8 25  1  0
 11 26  1  0
 12 27  1  0
 13 28  1  0
 15 29  1  0
 16 30  1  0
 17 31  1  0
 19 32  1  0
 20 33  1  0
 34 35  1  0
 35 36  2  0
 36 37  1  0
 37 38  2  0
 38 39  1  0
 38 40  1  0
 40 41  2  0
 41 35  1  0
 36 42  1  0
 37 43  1  0
 40 44  1  0
 41 45  1  0
  4 34  1  6
M  END
>  <attachment_point>  (350) 
21

>  <score>  (350) 
<NA>

$$$$
4djw
     RDKit          3D

 46 49  0  0  0  0  0  0  0  0999 V2000
   22.4950   11.8750   22.5810 C   0  0  0  0  0  0  0  0  0  0  0  0
   22.5380    9.4930   22.4640 N   0  0  0  0  0  0  0  0  0  0  0  0
   22.3600   13.0630   22.3480 O   0  0  0  0  0  0  0  0  0  0  0  0
   22.3390   10.6680   21.5610 C   0  0  2  0  0  0  0  0  0  0  0  0
   22.7860   11.3350   23.8120 N   0  0  0  0  0  0  0  0  0  0  0  0
   22.7800    9.9140   23.7010 C   0  0  0  0  0  0  0  0  0  0  0  0
   22.9970    9.1110   24.7490 N   0  0  0  0  0  0  0  0  0  0  0  0
   23.0220   12.1410   25.0180 C   0  0  0  0  0  0  0  0  0  0  0  0
   29.1260    9.8230   21.7090 N   0  0  0  0  0  0  0  0  0  0  0  0
   23.4880   10.6920   20.5300 C   0  0  0  0  0  0  0  0  0  0  0  0
   23.2110   10.7890   19.1730 C   0  0  0  0  0  0  0  0  0  0  0  0
   24.2350   10.8650   18.2430 C   0  0  0  0  0  0  0  0  0  0  0  0
   25.5500   10.8410   18.6560 C   0  0  0  0  0  0  0  0  0  0  0  0
   25.8710   10.7460   20.0070 C   0  0  0  0  0  0  0  0  0  0  0  0
   24.8260   10.6610   20.9430 C   0  0  0  0  0  0  0  0  0  0  0  0
   29.8540   10.9130   21.4510 C   0  0  0  0  0  0  0  0  0  0  0  0
   27.8830    9.7800   21.2080 C   0  0  0  0  0  0  0  0  0  0  0  0
   27.3000   10.8010   20.4650 C   0  0  0  0  0  0  0  0  0  0  0  0
   28.0930   11.9190   20.2200 C   0  0  0  0  0  0  0  0  0  0  0  0
   29.3850   11.9780   20.7130 C   0  0  0  0  0  0  0  0  0  0  0  0
    0.0000    0.0000    0.0000 H   0  0  0  0  0  0  0  0  0  0  0  0
    0.0000    0.0000    0.0000 H   0  0  0  0  0  0  0  0  0  0  0  0
    0.0000    0.0000    0.0000 H   0  0  0  0  0  0  0  0  0  0  0  0
    0.0000    0.0000    0.0000 H   0  0  0  0  0  0  0  0  0  0  0  0
    0.0000    0.0000    0.0000 H   0  0  0  0  0  0  0  0  0  0  0  0
    0.0000    0.0000    0.0000 H   0  0  0  0  0  0  0  0  0  0  0  0
    0.0000    0.0000    0.0000 H   0  0  0  0  0  0  0  0  0  0  0  0
    0.0000    0.0000    0.0000 H   0  0  0  0  0  0  0  0  0  0  0  0
    0.0000    0.0000    0.0000 H   0  0  0  0  0  0  0  0  0  0  0  0
    0.0000    0.0000    0.0000 H   0  0  0  0  0  0  0  0  0  0  0  0
    0.0000    0.0000    0.0000 H   0  0  0  0  0  0  0  0  0  0  0  0
    0.0000    0.0000    0.0000 H   0  0  0  0  0  0  0  0  0  0  0  0
    0.0000    0.0000    0.0000 H   0  0  0  0  0  0  0  0  0  0  0  0
   10.8781    5.1949   10.4993 C   0  0  0  0  0  0  0  0  0  0  0  0
    9.5322    5.3494   10.7748 C   0  0  0  0  0  0  0  0  0  0  0  0
    8.6060    4.8928    9.8528 C   0  0  0  0  0  0  0  0  0  0  0  0
    9.0405    4.2971    8.6863 C   0  0  0  0  0  0  0  0  0  0  0  0
   10.3789    4.1417    8.4087 C   0  0  0  0  0  0  0  0  0  0  0  0
   10.8329    3.5315    7.2140 N   0  0  0  0  0  0  0  0  0  0  0  0
   11.3101    4.5934    9.3212 C   0  0  0  0  0  0  0  0  0  0  0  0
    9.1763    5.8229   11.7019 H   0  0  0  0  0  0  0  0  0  0  0  0
    7.5404    4.9859   10.0133 H   0  0  0  0  0  0  0  0  0  0  0  0
    8.3032    3.9484    7.9816 H   0  0  0  0  0  0  0  0  0  0  0  0
   10.6753    2.5315    6.9876 H   0  0  0  0  0  0  0  0  0  0  0  0
   11.3524    4.1473    6.5422 H   0  0  0  0  0  0  0  0  0  0  0  0
   12.3839    4.5061    9.1725 H   0  0  0  0  0  0  0  0  0  0  0  0
  1  3  2  0
  1  4  1  0
  2  4  1  0
  1  5  1  0
  2  6  1  0
  5  6  1  0
  6  7  2  3
  5  8  1  0
  4 10  1  6
 10 11  2  0
 11 12  1  0
 12 13  2  0
 13 14  1  0
 10 15  1  0
 14 15  2  0
  9 16  2  0
  9 17  1  0
 14 18  1  0
 17 18  2  0
 18 19  1  0
 16 20  1  0
 19 20  2  0
  2 21  1  0
  7 22  1  0
  8 23  1  0
  8 24  1  0
  8 25  1  0
 11 26  1  0
 12 27  1  0
 13 28  1  0
 15 29  1  0
 16 30  1  0
 17 31  1  0
 19 32  1  0
 20 33  1  0
 34 35  2  0
 35 36  1  0
 36 37  2  0
 37 38  1  0
 38 39  1  0
 38 40  2  0
 40 34  1  0
 35 41  1  0
 36 42  1  0
 37 43  1  0
 39 44  1  0
 39 45  1  0
 40 46  1  0
  4 34  1  0
M  END
>  <attachment_point>  (351) 
21

>  <score>  (351) 
<NA>

$$$$
4djw
     RDKit          3D

 44 46  0  0  0  0  0  0  0  0999 V2000
   22.4950   11.8750   22.5810 C   0  0  0  0  0  0  0  0  0  0  0  0
   22.5380    9.4930   22.4640 N   0  0  0  0  0  0  0  0  0  0  0  0
   22.3600   13.0630   22.3480 O   0  0  0  0  0  0  0  0  0  0  0  0
   22.3390   10.6680   21.5610 C   0  0  2  0  0  0  0  0  0  0  0  0
   22.7860   11.3350   23.8120 N   0  0  0  0  0  0  0  0  0  0  0  0
   22.7800    9.9140   23.7010 C   0  0  0  0  0  0  0  0  0  0  0  0
   22.9970    9.1110   24.7490 N   0  0  0  0  0  0  0  0  0  0  0  0
   23.0220   12.1410   25.0180 C   0  0  0  0  0  0  0  0  0  0  0  0
   29.1260    9.8230   21.7090 N   0  0  0  0  0  0  0  0  0  0  0  0
   23.4880   10.6920   20.5300 C   0  0  0  0  0  0  0  0  0  0  0  0
   23.2110   10.7890   19.1730 C   0  0  0  0  0  0  0  0  0  0  0  0
   24.2350   10.8650   18.2430 C   0  0  0  0  0  0  0  0  0  0  0  0
   25.5500   10.8410   18.6560 C   0  0  0  0  0  0  0  0  0  0  0  0
   25.8710   10.7460   20.0070 C   0  0  0  0  0  0  0  0  0  0  0  0
   24.8260   10.6610   20.9430 C   0  0  0  0  0  0  0  0  0  0  0  0
   29.8540   10.9130   21.4510 C   0  0  0  0  0  0  0  0  0  0  0  0
   27.8830    9.7800   21.2080 C   0  0  0  0  0  0  0  0  0  0  0  0
   27.3000   10.8010   20.4650 C   0  0  0  0  0  0  0  0  0  0  0  0
   28.0930   11.9190   20.2200 C   0  0  0  0  0  0  0  0  0  0  0  0
   29.3850   11.9780   20.7130 C   0  0  0  0  0  0  0  0  0  0  0  0
    0.0000    0.0000    0.0000 H   0  0  0  0  0  0  0  0  0  0  0  0
    0.0000    0.0000    0.0000 H   0  0  0  0  0  0  0  0  0  0  0  0
    0.0000    0.0000    0.0000 H   0  0  0  0  0  0  0  0  0  0  0  0
    0.0000    0.0000    0.0000 H   0  0  0  0  0  0  0  0  0  0  0  0
    0.0000    0.0000    0.0000 H   0  0  0  0  0  0  0  0  0  0  0  0
    0.0000    0.0000    0.0000 H   0  0  0  0  0  0  0  0  0  0  0  0
    0.0000    0.0000    0.0000 H   0  0  0  0  0  0  0  0  0  0  0  0
    0.0000    0.0000    0.0000 H   0  0  0  0  0  0  0  0  0  0  0  0
    0.0000    0.0000    0.0000 H   0  0  0  0  0  0  0  0  0  0  0  0
    0.0000    0.0000    0.0000 H   0  0  0  0  0  0  0  0  0  0  0  0
    0.0000    0.0000    0.0000 H   0  0  0  0  0  0  0  0  0  0  0  0
    0.0000    0.0000    0.0000 H   0  0  0  0  0  0  0  0  0  0  0  0
    0.0000    0.0000    0.0000 H   0  0  0  0  0  0  0  0  0  0  0  0
   10.8466    5.1798   10.4688 N   0  0  0  0  0  0  0  0  0  0  0  0
    9.7008    5.0307   11.3561 C   0  0  0  0  0  0  0  0  0  0  0  0
    9.4355    6.4202   11.9380 C   0  0  0  0  0  0  0  0  0  0  0  0
    8.2873    6.3654   12.8522 N   0  0  0  0  0  0  0  0  0  0  0  0
   11.2421    4.2694   10.1692 H   0  0  0  0  0  0  0  0  0  0  0  0
    9.8941    4.3148   12.1794 H   0  0  0  0  0  0  0  0  0  0  0  0
    8.8292    4.6463   10.7949 H   0  0  0  0  0  0  0  0  0  0  0  0
   10.3097    6.6487   12.5920 H   0  0  0  0  0  0  0  0  0  0  0  0
    9.2768    7.1450   11.1420 H   0  0  0  0  0  0  0  0  0  0  0  0
    8.2519    7.3075   13.3094 H   0  0  0  0  0  0  0  0  0  0  0  0
    8.4044    5.5991   13.5228 H   0  0  0  0  0  0  0  0  0  0  0  0
  1  3  2  0
  1  4  1  0
  2  4  1  0
  1  5  1  0
  2  6  1  0
  5  6  1  0
  6  7  2  3
  5  8  1  0
  4 10  1  0
 10 11  2  0
 11 12  1  0
 12 13  2  0
 13 14  1  0
 10 15  1  0
 14 15  2  0
  9 16  2  0
  9 17  1  0
 14 18  1  0
 17 18  2  0
 18 19  1  0
 16 20  1  0
 19 20  2  0
  2 21  1  0
  7 22  1  0
  8 23  1  0
  8 24  1  0
  8 25  1  0
 11 26  1  0
 12 27  1  0
 13 28  1  0
 15 29  1  0
 16 30  1  0
 17 31  1  0
 19 32  1  0
 20 33  1  0
 34 35  1  0
 35 36  1  0
 36 37  1  0
 34 38  1  0
 35 39  1  0
 35 40  1  0
 36 41  1  0
 36 42  1  0
 37 43  1  0
 37 44  1  0
  4 34  1  6
M  END
>  <attachment_point>  (352) 
21

>  <score>  (352) 
<NA>

$$$$
4djw
     RDKit          3D

 52 55  0  0  0  0  0  0  0  0999 V2000
   22.4950   11.8750   22.5810 C   0  0  0  0  0  0  0  0  0  0  0  0
   22.5380    9.4930   22.4640 N   0  0  0  0  0  0  0  0  0  0  0  0
   22.3600   13.0630   22.3480 O   0  0  0  0  0  0  0  0  0  0  0  0
   22.3390   10.6680   21.5610 C   0  0  2  0  0  0  0  0  0  0  0  0
   22.7860   11.3350   23.8120 N   0  0  0  0  0  0  0  0  0  0  0  0
   22.7800    9.9140   23.7010 C   0  0  0  0  0  0  0  0  0  0  0  0
   22.9970    9.1110   24.7490 N   0  0  0  0  0  0  0  0  0  0  0  0
   23.0220   12.1410   25.0180 C   0  0  0  0  0  0  0  0  0  0  0  0
   29.1260    9.8230   21.7090 N   0  0  0  0  0  0  0  0  0  0  0  0
   23.4880   10.6920   20.5300 C   0  0  0  0  0  0  0  0  0  0  0  0
   23.2110   10.7890   19.1730 C   0  0  0  0  0  0  0  0  0  0  0  0
   24.2350   10.8650   18.2430 C   0  0  0  0  0  0  0  0  0  0  0  0
   25.5500   10.8410   18.6560 C   0  0  0  0  0  0  0  0  0  0  0  0
   25.8710   10.7460   20.0070 C   0  0  0  0  0  0  0  0  0  0  0  0
   24.8260   10.6610   20.9430 C   0  0  0  0  0  0  0  0  0  0  0  0
   29.8540   10.9130   21.4510 C   0  0  0  0  0  0  0  0  0  0  0  0
   27.8830    9.7800   21.2080 C   0  0  0  0  0  0  0  0  0  0  0  0
   27.3000   10.8010   20.4650 C   0  0  0  0  0  0  0  0  0  0  0  0
   28.0930   11.9190   20.2200 C   0  0  0  0  0  0  0  0  0  0  0  0
   29.3850   11.9780   20.7130 C   0  0  0  0  0  0  0  0  0  0  0  0
    0.0000    0.0000    0.0000 H   0  0  0  0  0  0  0  0  0  0  0  0
    0.0000    0.0000    0.0000 H   0  0  0  0  0  0  0  0  0  0  0  0
    0.0000    0.0000    0.0000 H   0  0  0  0  0  0  0  0  0  0  0  0
    0.0000    0.0000    0.0000 H   0  0  0  0  0  0  0  0  0  0  0  0
    0.0000    0.0000    0.0000 H   0  0  0  0  0  0  0  0  0  0  0  0
    0.0000    0.0000    0.0000 H   0  0  0  0  0  0  0  0  0  0  0  0
    0.0000    0.0000    0.0000 H   0  0  0  0  0  0  0  0  0  0  0  0
    0.0000    0.0000    0.0000 H   0  0  0  0  0  0  0  0  0  0  0  0
    0.0000    0.0000    0.0000 H   0  0  0  0  0  0  0  0  0  0  0  0
    0.0000    0.0000    0.0000 H   0  0  0  0  0  0  0  0  0  0  0  0
    0.0000    0.0000    0.0000 H   0  0  0  0  0  0  0  0  0  0  0  0
    0.0000    0.0000    0.0000 H   0  0  0  0  0  0  0  0  0  0  0  0
    0.0000    0.0000    0.0000 H   0  0  0  0  0  0  0  0  0  0  0  0
   10.9036    5.2070   10.5238 N   0  0  0  0  0  0  0  0  0  0  0  0
   10.6186    6.2795    9.5755 C   0  0  0  0  0  0  0  0  0  0  0  0
   11.8366    6.8411    8.9369 C   0  0  0  0  0  0  0  0  0  0  0  0
   12.8793    5.8565    8.5595 C   0  0  0  0  0  0  0  0  0  0  0  0
   14.2918    6.4493    8.6536 C   0  0  0  0  0  0  0  0  0  0  0  0
   12.9029    4.6119    9.3922 C   0  0  0  0  0  0  0  0  0  0  0  0
   11.5139    4.1471    9.7060 C   0  0  0  0  0  0  0  0  0  0  0  0
   10.0828    7.1051   10.1036 H   0  0  0  0  0  0  0  0  0  0  0  0
    9.8878    5.8522    8.8515 H   0  0  0  0  0  0  0  0  0  0  0  0
   12.2246    7.6817    9.5774 H   0  0  0  0  0  0  0  0  0  0  0  0
   11.5064    7.3611    7.9895 H   0  0  0  0  0  0  0  0  0  0  0  0
   12.7240    5.5236    7.4920 H   0  0  0  0  0  0  0  0  0  0  0  0
   14.9742    5.5861    8.4451 H   0  0  0  0  0  0  0  0  0  0  0  0
   14.4476    6.7431    9.7105 H   0  0  0  0  0  0  0  0  0  0  0  0
   14.4345    7.2974    7.9907 H   0  0  0  0  0  0  0  0  0  0  0  0
   13.5277    3.8616    8.8913 H   0  0  0  0  0  0  0  0  0  0  0  0
   13.3911    4.8654   10.3721 H   0  0  0  0  0  0  0  0  0  0  0  0
   11.5523    3.1958   10.2316 H   0  0  0  0  0  0  0  0  0  0  0  0
   10.9241    4.0625    8.7493 H   0  0  0  0  0  0  0  0  0  0  0  0
  1  3  2  0
  1  4  1  0
  2  4  1  0
  1  5  1  0
  2  6  1  0
  5  6  1  0
  6  7  2  3
  5  8  1  0
  4 10  1  0
 10 11  2  0
 11 12  1  0
 12 13  2  0
 13 14  1  0
 10 15  1  0
 14 15  2  0
  9 16  2  0
  9 17  1  0
 14 18  1  0
 17 18  2  0
 18 19  1  0
 16 20  1  0
 19 20  2  0
  2 21  1  0
  7 22  1  0
  8 23  1  0
  8 24  1  0
  8 25  1  0
 11 26  1  0
 12 27  1  0
 13 28  1  0
 15 29  1  0
 16 30  1  0
 17 31  1  0
 19 32  1  0
 20 33  1  0
 34 35  1  0
 35 36  1  0
 36 37  1  0
 37 38  1  0
 37 39  1  0
 39 40  1  0
 40 34  1  0
 35 41  1  0
 35 42  1  0
 36 43  1  0
 36 44  1  0
 37 45  1  0
 38 46  1  0
 38 47  1  0
 38 48  1  0
 39 49  1  0
 39 50  1  0
 40 51  1  0
 40 52  1  0
  4 34  1  6
M  END
>  <attachment_point>  (353) 
21

>  <score>  (353) 
<NA>

$$$$
4djw
     RDKit          3D

 46 49  0  0  0  0  0  0  0  0999 V2000
   22.4950   11.8750   22.5810 C   0  0  0  0  0  0  0  0  0  0  0  0
   22.5380    9.4930   22.4640 N   0  0  0  0  0  0  0  0  0  0  0  0
   22.3600   13.0630   22.3480 O   0  0  0  0  0  0  0  0  0  0  0  0
   22.3390   10.6680   21.5610 C   0  0  2  0  0  0  0  0  0  0  0  0
   22.7860   11.3350   23.8120 N   0  0  0  0  0  0  0  0  0  0  0  0
   22.7800    9.9140   23.7010 C   0  0  0  0  0  0  0  0  0  0  0  0
   22.9970    9.1110   24.7490 N   0  0  0  0  0  0  0  0  0  0  0  0
   23.0220   12.1410   25.0180 C   0  0  0  0  0  0  0  0  0  0  0  0
   29.1260    9.8230   21.7090 N   0  0  0  0  0  0  0  0  0  0  0  0
   23.4880   10.6920   20.5300 C   0  0  0  0  0  0  0  0  0  0  0  0
   23.2110   10.7890   19.1730 C   0  0  0  0  0  0  0  0  0  0  0  0
   24.2350   10.8650   18.2430 C   0  0  0  0  0  0  0  0  0  0  0  0
   25.5500   10.8410   18.6560 C   0  0  0  0  0  0  0  0  0  0  0  0
   25.8710   10.7460   20.0070 C   0  0  0  0  0  0  0  0  0  0  0  0
   24.8260   10.6610   20.9430 C   0  0  0  0  0  0  0  0  0  0  0  0
   29.8540   10.9130   21.4510 C   0  0  0  0  0  0  0  0  0  0  0  0
   27.8830    9.7800   21.2080 C   0  0  0  0  0  0  0  0  0  0  0  0
   27.3000   10.8010   20.4650 C   0  0  0  0  0  0  0  0  0  0  0  0
   28.0930   11.9190   20.2200 C   0  0  0  0  0  0  0  0  0  0  0  0
   29.3850   11.9780   20.7130 C   0  0  0  0  0  0  0  0  0  0  0  0
    0.0000    0.0000    0.0000 H   0  0  0  0  0  0  0  0  0  0  0  0
    0.0000    0.0000    0.0000 H   0  0  0  0  0  0  0  0  0  0  0  0
    0.0000    0.0000    0.0000 H   0  0  0  0  0  0  0  0  0  0  0  0
    0.0000    0.0000    0.0000 H   0  0  0  0  0  0  0  0  0  0  0  0
    0.0000    0.0000    0.0000 H   0  0  0  0  0  0  0  0  0  0  0  0
    0.0000    0.0000    0.0000 H   0  0  0  0  0  0  0  0  0  0  0  0
    0.0000    0.0000    0.0000 H   0  0  0  0  0  0  0  0  0  0  0  0
    0.0000    0.0000    0.0000 H   0  0  0  0  0  0  0  0  0  0  0  0
    0.0000    0.0000    0.0000 H   0  0  0  0  0  0  0  0  0  0  0  0
    0.0000    0.0000    0.0000 H   0  0  0  0  0  0  0  0  0  0  0  0
    0.0000    0.0000    0.0000 H   0  0  0  0  0  0  0  0  0  0  0  0
    0.0000    0.0000    0.0000 H   0  0  0  0  0  0  0  0  0  0  0  0
    0.0000    0.0000    0.0000 H   0  0  0  0  0  0  0  0  0  0  0  0
   10.8762    5.1939   10.4974 C   0  0  0  0  0  0  0  0  0  0  0  0
   11.3792    4.8578    9.2584 C   0  0  0  0  0  0  0  0  0  0  0  0
   10.4510    4.4032    8.3289 C   0  0  0  0  0  0  0  0  0  0  0  0
    9.1070    4.2929    8.6223 C   0  0  0  0  0  0  0  0  0  0  0  0
    8.1922    3.7931    7.5517 C   0  0  0  0  0  0  0  0  0  0  0  0
    8.3248    4.6931    6.4883 F   0  0  0  0  0  0  0  0  0  0  0  0
    8.6717    2.5688    7.1119 F   0  0  0  0  0  0  0  0  0  0  0  0
    6.8981    3.7308    7.9939 F   0  0  0  0  0  0  0  0  0  0  0  0
    8.6639    4.6417    9.8715 C   0  0  0  0  0  0  0  0  0  0  0  0
    9.5671    5.0882   10.7885 N   0  0  0  0  0  0  0  0  0  0  0  0
   12.4300    4.9385    9.0125 H   0  0  0  0  0  0  0  0  0  0  0  0
   10.7889    4.1317    7.3598 H   0  0  0  0  0  0  0  0  0  0  0  0
    7.6092    4.5529   10.0949 H   0  0  0  0  0  0  0  0  0  0  0  0
  1  3  2  0
  1  4  1  0
  2  4  1  0
  1  5  1  0
  2  6  1  0
  5  6  1  0
  6  7  2  3
  5  8  1  0
  4 10  1  6
 10 11  2  0
 11 12  1  0
 12 13  2  0
 13 14  1  0
 10 15  1  0
 14 15  2  0
  9 16  2  0
  9 17  1  0
 14 18  1  0
 17 18  2  0
 18 19  1  0
 16 20  1  0
 19 20  2  0
  2 21  1  0
  7 22  1  0
  8 23  1  0
  8 24  1  0
  8 25  1  0
 11 26  1  0
 12 27  1  0
 13 28  1  0
 15 29  1  0
 16 30  1  0
 17 31  1  0
 19 32  1  0
 20 33  1  0
 34 35  2  0
 35 36  1  0
 36 37  2  0
 37 38  1  0
 38 39  1  0
 38 40  1  0
 38 41  1  0
 37 42  1  0
 42 43  2  0
 43 34  1  0
 35 44  1  0
 36 45  1  0
 42 46  1  0
  4 34  1  0
M  END
>  <attachment_point>  (354) 
21

>  <score>  (354) 
<NA>

$$$$
4djw
     RDKit          3D

 50 53  0  0  0  0  0  0  0  0999 V2000
   22.4950   11.8750   22.5810 C   0  0  0  0  0  0  0  0  0  0  0  0
   22.5380    9.4930   22.4640 N   0  0  0  0  0  0  0  0  0  0  0  0
   22.3600   13.0630   22.3480 O   0  0  0  0  0  0  0  0  0  0  0  0
   22.3390   10.6680   21.5610 C   0  0  2  0  0  0  0  0  0  0  0  0
   22.7860   11.3350   23.8120 N   0  0  0  0  0  0  0  0  0  0  0  0
   22.7800    9.9140   23.7010 C   0  0  0  0  0  0  0  0  0  0  0  0
   22.9970    9.1110   24.7490 N   0  0  0  0  0  0  0  0  0  0  0  0
   23.0220   12.1410   25.0180 C   0  0  0  0  0  0  0  0  0  0  0  0
   29.1260    9.8230   21.7090 N   0  0  0  0  0  0  0  0  0  0  0  0
   23.4880   10.6920   20.5300 C   0  0  0  0  0  0  0  0  0  0  0  0
   23.2110   10.7890   19.1730 C   0  0  0  0  0  0  0  0  0  0  0  0
   24.2350   10.8650   18.2430 C   0  0  0  0  0  0  0  0  0  0  0  0
   25.5500   10.8410   18.6560 C   0  0  0  0  0  0  0  0  0  0  0  0
   25.8710   10.7460   20.0070 C   0  0  0  0  0  0  0  0  0  0  0  0
   24.8260   10.6610   20.9430 C   0  0  0  0  0  0  0  0  0  0  0  0
   29.8540   10.9130   21.4510 C   0  0  0  0  0  0  0  0  0  0  0  0
   27.8830    9.7800   21.2080 C   0  0  0  0  0  0  0  0  0  0  0  0
   27.3000   10.8010   20.4650 C   0  0  0  0  0  0  0  0  0  0  0  0
   28.0930   11.9190   20.2200 C   0  0  0  0  0  0  0  0  0  0  0  0
   29.3850   11.9780   20.7130 C   0  0  0  0  0  0  0  0  0  0  0  0
    0.0000    0.0000    0.0000 H   0  0  0  0  0  0  0  0  0  0  0  0
    0.0000    0.0000    0.0000 H   0  0  0  0  0  0  0  0  0  0  0  0
    0.0000    0.0000    0.0000 H   0  0  0  0  0  0  0  0  0  0  0  0
    0.0000    0.0000    0.0000 H   0  0  0  0  0  0  0  0  0  0  0  0
    0.0000    0.0000    0.0000 H   0  0  0  0  0  0  0  0  0  0  0  0
    0.0000    0.0000    0.0000 H   0  0  0  0  0  0  0  0  0  0  0  0
    0.0000    0.0000    0.0000 H   0  0  0  0  0  0  0  0  0  0  0  0
    0.0000    0.0000    0.0000 H   0  0  0  0  0  0  0  0  0  0  0  0
    0.0000    0.0000    0.0000 H   0  0  0  0  0  0  0  0  0  0  0  0
    0.0000    0.0000    0.0000 H   0  0  0  0  0  0  0  0  0  0  0  0
    0.0000    0.0000    0.0000 H   0  0  0  0  0  0  0  0  0  0  0  0
    0.0000    0.0000    0.0000 H   0  0  0  0  0  0  0  0  0  0  0  0
    0.0000    0.0000    0.0000 H   0  0  0  0  0  0  0  0  0  0  0  0
   10.8672    5.1896   10.4887 C   0  0  0  0  0  0  0  0  0  0  0  0
   10.4032    4.0460   10.5520 O   0  0  0  0  0  0  0  0  0  0  0  0
   10.4551    6.0460    9.5076 O   0  0  0  0  0  0  0  0  0  0  0  0
    9.5215    5.7401    8.5302 C   0  0  0  0  0  0  0  0  0  0  0  0
    8.1731    5.3708    9.0053 C   0  0  0  0  0  0  0  0  0  0  0  0
    7.8042    4.0520    9.1566 C   0  0  0  0  0  0  0  0  0  0  0  0
    6.5161    3.7685    9.6261 C   0  0  0  0  0  0  0  0  0  0  0  0
    5.6119    4.7471    9.9391 C   0  0  0  0  0  0  0  0  0  0  0  0
    5.9967    6.0619    9.7816 C   0  0  0  0  0  0  0  0  0  0  0  0
    7.2552    6.3837    9.3225 C   0  0  0  0  0  0  0  0  0  0  0  0
    9.9085    4.9493    7.8206 H   0  0  0  0  0  0  0  0  0  0  0  0
    9.4076    6.6854    7.9145 H   0  0  0  0  0  0  0  0  0  0  0  0
    8.4529    3.2104    8.9212 H   0  0  0  0  0  0  0  0  0  0  0  0
    6.2127    2.7280    9.7502 H   0  0  0  0  0  0  0  0  0  0  0  0
    4.6099    4.5438   10.3041 H   0  0  0  0  0  0  0  0  0  0  0  0
    5.2637    6.8445   10.0353 H   0  0  0  0  0  0  0  0  0  0  0  0
    7.5365    7.4389    9.2060 H   0  0  0  0  0  0  0  0  0  0  0  0
  1  3  2  0
  1  4  1  0
  2  4  1  0
  1  5  1  0
  2  6  1  0
  5  6  1  0
  6  7  2  3
  5  8  1  0
  4 10  1  0
 10 11  2  0
 11 12  1  0
 12 13  2  0
 13 14  1  0
 10 15  1  0
 14 15  2  0
  9 16  2  0
  9 17  1  0
 14 18  1  0
 17 18  2  0
 18 19  1  0
 16 20  1  0
 19 20  2  0
  2 21  1  0
  7 22  1  0
  8 23  1  0
  8 24  1  0
  8 25  1  0
 11 26  1  0
 12 27  1  0
 13 28  1  0
 15 29  1  0
 16 30  1  0
 17 31  1  0
 19 32  1  0
 20 33  1  0
 34 35  2  0
 34 36  1  0
 36 37  1  0
 37 38  1  0
 38 39  2  0
 39 40  1  0
 40 41  2  0
 41 42  1  0
 42 43  2  0
 43 38  1  0
 37 44  1  0
 37 45  1  0
 39 46  1  0
 40 47  1  0
 41 48  1  0
 42 49  1  0
 43 50  1  0
  4 34  1  6
M  END
>  <attachment_point>  (355) 
21

>  <score>  (355) 
<NA>

$$$$
4djw
     RDKit          3D

 45 47  0  0  0  0  0  0  0  0999 V2000
   22.4950   11.8750   22.5810 C   0  0  0  0  0  0  0  0  0  0  0  0
   22.5380    9.4930   22.4640 N   0  0  0  0  0  0  0  0  0  0  0  0
   22.3600   13.0630   22.3480 O   0  0  0  0  0  0  0  0  0  0  0  0
   22.3390   10.6680   21.5610 C   0  0  2  0  0  0  0  0  0  0  0  0
   22.7860   11.3350   23.8120 N   0  0  0  0  0  0  0  0  0  0  0  0
   22.7800    9.9140   23.7010 C   0  0  0  0  0  0  0  0  0  0  0  0
   22.9970    9.1110   24.7490 N   0  0  0  0  0  0  0  0  0  0  0  0
   23.0220   12.1410   25.0180 C   0  0  0  0  0  0  0  0  0  0  0  0
   29.1260    9.8230   21.7090 N   0  0  0  0  0  0  0  0  0  0  0  0
   23.4880   10.6920   20.5300 C   0  0  0  0  0  0  0  0  0  0  0  0
   23.2110   10.7890   19.1730 C   0  0  0  0  0  0  0  0  0  0  0  0
   24.2350   10.8650   18.2430 C   0  0  0  0  0  0  0  0  0  0  0  0
   25.5500   10.8410   18.6560 C   0  0  0  0  0  0  0  0  0  0  0  0
   25.8710   10.7460   20.0070 C   0  0  0  0  0  0  0  0  0  0  0  0
   24.8260   10.6610   20.9430 C   0  0  0  0  0  0  0  0  0  0  0  0
   29.8540   10.9130   21.4510 C   0  0  0  0  0  0  0  0  0  0  0  0
   27.8830    9.7800   21.2080 C   0  0  0  0  0  0  0  0  0  0  0  0
   27.3000   10.8010   20.4650 C   0  0  0  0  0  0  0  0  0  0  0  0
   28.0930   11.9190   20.2200 C   0  0  0  0  0  0  0  0  0  0  0  0
   29.3850   11.9780   20.7130 C   0  0  0  0  0  0  0  0  0  0  0  0
    0.0000    0.0000    0.0000 H   0  0  0  0  0  0  0  0  0  0  0  0
    0.0000    0.0000    0.0000 H   0  0  0  0  0  0  0  0  0  0  0  0
    0.0000    0.0000    0.0000 H   0  0  0  0  0  0  0  0  0  0  0  0
    0.0000    0.0000    0.0000 H   0  0  0  0  0  0  0  0  0  0  0  0
    0.0000    0.0000    0.0000 H   0  0  0  0  0  0  0  0  0  0  0  0
    0.0000    0.0000    0.0000 H   0  0  0  0  0  0  0  0  0  0  0  0
    0.0000    0.0000    0.0000 H   0  0  0  0  0  0  0  0  0  0  0  0
    0.0000    0.0000    0.0000 H   0  0  0  0  0  0  0  0  0  0  0  0
    0.0000    0.0000    0.0000 H   0  0  0  0  0  0  0  0  0  0  0  0
    0.0000    0.0000    0.0000 H   0  0  0  0  0  0  0  0  0  0  0  0
    0.0000    0.0000    0.0000 H   0  0  0  0  0  0  0  0  0  0  0  0
    0.0000    0.0000    0.0000 H   0  0  0  0  0  0  0  0  0  0  0  0
    0.0000    0.0000    0.0000 H   0  0  0  0  0  0  0  0  0  0  0  0
   10.8771    5.1944   10.4983 S   0  0  0  0  0  6  0  0  0  0  0  0
   10.5562    6.3548    9.5745 O   0  0  0  0  0  0  0  0  0  0  0  0
   11.4268    4.0895    9.6818 O   0  0  0  0  0  0  0  0  0  0  0  0
    9.4121    4.7942   11.3021 N   0  0  0  0  0  0  0  0  0  0  0  0
    9.3634    3.4187   11.7337 C   0  0  0  0  0  0  0  0  0  0  0  0
    8.2414    5.2005   10.5732 C   0  0  0  0  0  0  0  0  0  0  0  0
   10.2763    3.2654   12.3786 H   0  0  0  0  0  0  0  0  0  0  0  0
    8.4775    3.3228   12.4028 H   0  0  0  0  0  0  0  0  0  0  0  0
    9.2808    2.6913   10.9276 H   0  0  0  0  0  0  0  0  0  0  0  0
    8.5362    5.2706    9.4946 H   0  0  0  0  0  0  0  0  0  0  0  0
    7.4244    4.4345   10.5990 H   0  0  0  0  0  0  0  0  0  0  0  0
    7.8773    6.2101   10.8520 H   0  0  0  0  0  0  0  0  0  0  0  0
  1  3  2  0
  1  4  1  0
  2  4  1  0
  1  5  1  0
  2  6  1  0
  5  6  1  0
  6  7  2  3
  5  8  1  0
  4 10  1  6
 10 11  2  0
 11 12  1  0
 12 13  2  0
 13 14  1  0
 10 15  1  0
 14 15  2  0
  9 16  2  0
  9 17  1  0
 14 18  1  0
 17 18  2  0
 18 19  1  0
 16 20  1  0
 19 20  2  0
  2 21  1  0
  7 22  1  0
  8 23  1  0
  8 24  1  0
  8 25  1  0
 11 26  1  0
 12 27  1  0
 13 28  1  0
 15 29  1  0
 16 30  1  0
 17 31  1  0
 19 32  1  0
 20 33  1  0
 34 35  2  0
 34 36  2  0
 34 37  1  0
 37 38  1  0
 37 39  1  0
 38 40  1  0
 38 41  1  0
 38 42  1  0
 39 43  1  0
 39 44  1  0
 39 45  1  0
  4 34  1  0
M  END
>  <attachment_point>  (356) 
21

>  <score>  (356) 
<NA>

$$$$
4djw
     RDKit          3D

 42 44  0  0  0  0  0  0  0  0999 V2000
   22.4950   11.8750   22.5810 C   0  0  0  0  0  0  0  0  0  0  0  0
   22.5380    9.4930   22.4640 N   0  0  0  0  0  0  0  0  0  0  0  0
   22.3600   13.0630   22.3480 O   0  0  0  0  0  0  0  0  0  0  0  0
   22.3390   10.6680   21.5610 C   0  0  2  0  0  0  0  0  0  0  0  0
   22.7860   11.3350   23.8120 N   0  0  0  0  0  0  0  0  0  0  0  0
   22.7800    9.9140   23.7010 C   0  0  0  0  0  0  0  0  0  0  0  0
   22.9970    9.1110   24.7490 N   0  0  0  0  0  0  0  0  0  0  0  0
   23.0220   12.1410   25.0180 C   0  0  0  0  0  0  0  0  0  0  0  0
   29.1260    9.8230   21.7090 N   0  0  0  0  0  0  0  0  0  0  0  0
   23.4880   10.6920   20.5300 C   0  0  0  0  0  0  0  0  0  0  0  0
   23.2110   10.7890   19.1730 C   0  0  0  0  0  0  0  0  0  0  0  0
   24.2350   10.8650   18.2430 C   0  0  0  0  0  0  0  0  0  0  0  0
   25.5500   10.8410   18.6560 C   0  0  0  0  0  0  0  0  0  0  0  0
   25.8710   10.7460   20.0070 C   0  0  0  0  0  0  0  0  0  0  0  0
   24.8260   10.6610   20.9430 C   0  0  0  0  0  0  0  0  0  0  0  0
   29.8540   10.9130   21.4510 C   0  0  0  0  0  0  0  0  0  0  0  0
   27.8830    9.7800   21.2080 C   0  0  0  0  0  0  0  0  0  0  0  0
   27.3000   10.8010   20.4650 C   0  0  0  0  0  0  0  0  0  0  0  0
   28.0930   11.9190   20.2200 C   0  0  0  0  0  0  0  0  0  0  0  0
   29.3850   11.9780   20.7130 C   0  0  0  0  0  0  0  0  0  0  0  0
    0.0000    0.0000    0.0000 H   0  0  0  0  0  0  0  0  0  0  0  0
    0.0000    0.0000    0.0000 H   0  0  0  0  0  0  0  0  0  0  0  0
    0.0000    0.0000    0.0000 H   0  0  0  0  0  0  0  0  0  0  0  0
    0.0000    0.0000    0.0000 H   0  0  0  0  0  0  0  0  0  0  0  0
    0.0000    0.0000    0.0000 H   0  0  0  0  0  0  0  0  0  0  0  0
    0.0000    0.0000    0.0000 H   0  0  0  0  0  0  0  0  0  0  0  0
    0.0000    0.0000    0.0000 H   0  0  0  0  0  0  0  0  0  0  0  0
    0.0000    0.0000    0.0000 H   0  0  0  0  0  0  0  0  0  0  0  0
    0.0000    0.0000    0.0000 H   0  0  0  0  0  0  0  0  0  0  0  0
    0.0000    0.0000    0.0000 H   0  0  0  0  0  0  0  0  0  0  0  0
    0.0000    0.0000    0.0000 H   0  0  0  0  0  0  0  0  0  0  0  0
    0.0000    0.0000    0.0000 H   0  0  0  0  0  0  0  0  0  0  0  0
    0.0000    0.0000    0.0000 H   0  0  0  0  0  0  0  0  0  0  0  0
   10.8715    5.1917   10.4929 C   0  0  0  0  0  0  0  0  0  0  0  0
   10.8770    3.7262   10.3949 C   0  0  0  0  0  0  0  0  0  0  0  0
   10.0653    3.1861    9.6014 O   0  0  0  0  0  0  0  0  0  0  0  0
   11.7376    2.8679   11.1358 N   0  0  0  0  0  0  0  0  0  0  0  0
   11.7164    1.5192   11.0212 O   0  0  0  0  0  0  0  0  0  0  0  0
   11.1827    5.5916    9.4966 H   0  0  0  0  0  0  0  0  0  0  0  0
    9.9127    5.6133   10.8441 H   0  0  0  0  0  0  0  0  0  0  0  0
   12.4059    3.3451   11.7913 H   0  0  0  0  0  0  0  0  0  0  0  0
   11.0973    1.0934   11.6850 H   0  0  0  0  0  0  0  0  0  0  0  0
  1  3  2  0
  1  4  1  0
  2  4  1  0
  1  5  1  0
  2  6  1  0
  5  6  1  0
  6  7  2  3
  5  8  1  0
  4 10  1  0
 10 11  2  0
 11 12  1  0
 12 13  2  0
 13 14  1  0
 10 15  1  0
 14 15  2  0
  9 16  2  0
  9 17  1  0
 14 18  1  0
 17 18  2  0
 18 19  1  0
 16 20  1  0
 19 20  2  0
  2 21  1  0
  7 22  1  0
  8 23  1  0
  8 24  1  0
  8 25  1  0
 11 26  1  0
 12 27  1  0
 13 28  1  0
 15 29  1  0
 16 30  1  0
 17 31  1  0
 19 32  1  0
 20 33  1  0
 34 35  1  0
 35 36  2  0
 35 37  1  0
 37 38  1  0
 34 39  1  0
 34 40  1  0
 37 41  1  0
 38 42  1  0
  4 34  1  6
M  END
>  <attachment_point>  (357) 
21

>  <score>  (357) 
<NA>

$$$$
4djw
     RDKit          3D

 50 53  0  0  0  0  0  0  0  0999 V2000
   22.4950   11.8750   22.5810 C   0  0  0  0  0  0  0  0  0  0  0  0
   22.5380    9.4930   22.4640 N   0  0  0  0  0  0  0  0  0  0  0  0
   22.3600   13.0630   22.3480 O   0  0  0  0  0  0  0  0  0  0  0  0
   22.3390   10.6680   21.5610 C   0  0  2  0  0  0  0  0  0  0  0  0
   22.7860   11.3350   23.8120 N   0  0  0  0  0  0  0  0  0  0  0  0
   22.7800    9.9140   23.7010 C   0  0  0  0  0  0  0  0  0  0  0  0
   22.9970    9.1110   24.7490 N   0  0  0  0  0  0  0  0  0  0  0  0
   23.0220   12.1410   25.0180 C   0  0  0  0  0  0  0  0  0  0  0  0
   29.1260    9.8230   21.7090 N   0  0  0  0  0  0  0  0  0  0  0  0
   23.4880   10.6920   20.5300 C   0  0  0  0  0  0  0  0  0  0  0  0
   23.2110   10.7890   19.1730 C   0  0  0  0  0  0  0  0  0  0  0  0
   24.2350   10.8650   18.2430 C   0  0  0  0  0  0  0  0  0  0  0  0
   25.5500   10.8410   18.6560 C   0  0  0  0  0  0  0  0  0  0  0  0
   25.8710   10.7460   20.0070 C   0  0  0  0  0  0  0  0  0  0  0  0
   24.8260   10.6610   20.9430 C   0  0  0  0  0  0  0  0  0  0  0  0
   29.8540   10.9130   21.4510 C   0  0  0  0  0  0  0  0  0  0  0  0
   27.8830    9.7800   21.2080 C   0  0  0  0  0  0  0  0  0  0  0  0
   27.3000   10.8010   20.4650 C   0  0  0  0  0  0  0  0  0  0  0  0
   28.0930   11.9190   20.2200 C   0  0  0  0  0  0  0  0  0  0  0  0
   29.3850   11.9780   20.7130 C   0  0  0  0  0  0  0  0  0  0  0  0
    0.0000    0.0000    0.0000 H   0  0  0  0  0  0  0  0  0  0  0  0
    0.0000    0.0000    0.0000 H   0  0  0  0  0  0  0  0  0  0  0  0
    0.0000    0.0000    0.0000 H   0  0  0  0  0  0  0  0  0  0  0  0
    0.0000    0.0000    0.0000 H   0  0  0  0  0  0  0  0  0  0  0  0
    0.0000    0.0000    0.0000 H   0  0  0  0  0  0  0  0  0  0  0  0
    0.0000    0.0000    0.0000 H   0  0  0  0  0  0  0  0  0  0  0  0
    0.0000    0.0000    0.0000 H   0  0  0  0  0  0  0  0  0  0  0  0
    0.0000    0.0000    0.0000 H   0  0  0  0  0  0  0  0  0  0  0  0
    0.0000    0.0000    0.0000 H   0  0  0  0  0  0  0  0  0  0  0  0
    0.0000    0.0000    0.0000 H   0  0  0  0  0  0  0  0  0  0  0  0
    0.0000    0.0000    0.0000 H   0  0  0  0  0  0  0  0  0  0  0  0
    0.0000    0.0000    0.0000 H   0  0  0  0  0  0  0  0  0  0  0  0
    0.0000    0.0000    0.0000 H   0  0  0  0  0  0  0  0  0  0  0  0
   10.8241    5.1690   10.4471 C   0  0  0  0  0  0  0  0  0  0  0  0
    9.7412    5.0545   10.9701 O   0  0  0  0  0  0  0  0  0  0  0  0
   11.2718    4.9332    9.1279 C   0  0  0  0  0  0  0  0  0  0  0  0
   12.5901    5.1432    8.7661 C   0  0  0  0  0  0  0  0  0  0  0  0
   13.0817    4.9292    7.4926 C   0  0  0  0  0  0  0  0  0  0  0  0
   12.2140    4.4820    6.5274 C   0  0  0  0  0  0  0  0  0  0  0  0
   12.6598    4.2523    5.2344 O   0  0  0  0  0  0  0  0  0  0  0  0
   14.0216    4.4818    4.9093 C   0  0  0  0  0  0  0  0  0  0  0  0
   10.8884    4.2548    6.8290 C   0  0  0  0  0  0  0  0  0  0  0  0
   10.4386    4.4800    8.1086 C   0  0  0  0  0  0  0  0  0  0  0  0
   13.2680    5.4919    9.5175 H   0  0  0  0  0  0  0  0  0  0  0  0
   14.1380    5.1186    7.2853 H   0  0  0  0  0  0  0  0  0  0  0  0
   14.2783    5.5420    5.0964 H   0  0  0  0  0  0  0  0  0  0  0  0
   14.2297    4.2716    3.8620 H   0  0  0  0  0  0  0  0  0  0  0  0
   14.6236    3.8401    5.5915 H   0  0  0  0  0  0  0  0  0  0  0  0
   10.1621    3.9034    6.1101 H   0  0  0  0  0  0  0  0  0  0  0  0
    9.4052    4.3200    8.4101 H   0  0  0  0  0  0  0  0  0  0  0  0
  1  3  2  0
  1  4  1  0
  2  4  1  0
  1  5  1  0
  2  6  1  0
  5  6  1  0
  6  7  2  3
  5  8  1  0
  4 10  1  0
 10 11  2  0
 11 12  1  0
 12 13  2  0
 13 14  1  0
 10 15  1  0
 14 15  2  0
  9 16  2  0
  9 17  1  0
 14 18  1  0
 17 18  2  0
 18 19  1  0
 16 20  1  0
 19 20  2  0
  2 21  1  0
  7 22  1  0
  8 23  1  0
  8 24  1  0
  8 25  1  0
 11 26  1  0
 12 27  1  0
 13 28  1  0
 15 29  1  0
 16 30  1  0
 17 31  1  0
 19 32  1  0
 20 33  1  0
 34 35  2  0
 34 36  1  0
 36 37  2  0
 37 38  1  0
 38 39  2  0
 39 40  1  0
 40 41  1  0
 39 42  1  0
 42 43  2  0
 43 36  1  0
 37 44  1  0
 38 45  1  0
 41 46  1  0
 41 47  1  0
 41 48  1  0
 42 49  1  0
 43 50  1  0
  4 34  1  6
M  END
>  <attachment_point>  (358) 
21

>  <score>  (358) 
<NA>

$$$$
4djw
     RDKit          3D

 40 43  0  0  0  0  0  0  0  0999 V2000
   22.4950   11.8750   22.5810 C   0  0  0  0  0  0  0  0  0  0  0  0
   22.5380    9.4930   22.4640 N   0  0  0  0  0  0  0  0  0  0  0  0
   22.3600   13.0630   22.3480 O   0  0  0  0  0  0  0  0  0  0  0  0
   22.3390   10.6680   21.5610 C   0  0  2  0  0  0  0  0  0  0  0  0
   22.7860   11.3350   23.8120 N   0  0  0  0  0  0  0  0  0  0  0  0
   22.7800    9.9140   23.7010 C   0  0  0  0  0  0  0  0  0  0  0  0
   22.9970    9.1110   24.7490 N   0  0  0  0  0  0  0  0  0  0  0  0
   23.0220   12.1410   25.0180 C   0  0  0  0  0  0  0  0  0  0  0  0
   29.1260    9.8230   21.7090 N   0  0  0  0  0  0  0  0  0  0  0  0
   23.4880   10.6920   20.5300 C   0  0  0  0  0  0  0  0  0  0  0  0
   23.2110   10.7890   19.1730 C   0  0  0  0  0  0  0  0  0  0  0  0
   24.2350   10.8650   18.2430 C   0  0  0  0  0  0  0  0  0  0  0  0
   25.5500   10.8410   18.6560 C   0  0  0  0  0  0  0  0  0  0  0  0
   25.8710   10.7460   20.0070 C   0  0  0  0  0  0  0  0  0  0  0  0
   24.8260   10.6610   20.9430 C   0  0  0  0  0  0  0  0  0  0  0  0
   29.8540   10.9130   21.4510 C   0  0  0  0  0  0  0  0  0  0  0  0
   27.8830    9.7800   21.2080 C   0  0  0  0  0  0  0  0  0  0  0  0
   27.3000   10.8010   20.4650 C   0  0  0  0  0  0  0  0  0  0  0  0
   28.0930   11.9190   20.2200 C   0  0  0  0  0  0  0  0  0  0  0  0
   29.3850   11.9780   20.7130 C   0  0  0  0  0  0  0  0  0  0  0  0
    0.0000    0.0000    0.0000 H   0  0  0  0  0  0  0  0  0  0  0  0
    0.0000    0.0000    0.0000 H   0  0  0  0  0  0  0  0  0  0  0  0
    0.0000    0.0000    0.0000 H   0  0  0  0  0  0  0  0  0  0  0  0
    0.0000    0.0000    0.0000 H   0  0  0  0  0  0  0  0  0  0  0  0
    0.0000    0.0000    0.0000 H   0  0  0  0  0  0  0  0  0  0  0  0
    0.0000    0.0000    0.0000 H   0  0  0  0  0  0  0  0  0  0  0  0
    0.0000    0.0000    0.0000 H   0  0  0  0  0  0  0  0  0  0  0  0
    0.0000    0.0000    0.0000 H   0  0  0  0  0  0  0  0  0  0  0  0
    0.0000    0.0000    0.0000 H   0  0  0  0  0  0  0  0  0  0  0  0
    0.0000    0.0000    0.0000 H   0  0  0  0  0  0  0  0  0  0  0  0
    0.0000    0.0000    0.0000 H   0  0  0  0  0  0  0  0  0  0  0  0
    0.0000    0.0000    0.0000 H   0  0  0  0  0  0  0  0  0  0  0  0
    0.0000    0.0000    0.0000 H   0  0  0  0  0  0  0  0  0  0  0  0
   10.8729    5.1924   10.4943 N   0  0  0  0  0  0  0  0  0  0  0  0
    9.7219    5.7722   10.1775 C   0  0  0  0  0  0  0  0  0  0  0  0
    9.1724    4.9349    9.2430 N   0  0  0  0  0  0  0  0  0  0  0  0
    9.9840    3.8976    9.0244 C   0  0  0  0  0  0  0  0  0  0  0  0
   11.0512    4.0779    9.8229 N   0  0  0  0  0  0  0  0  0  0  0  0
    9.2754    6.6836   10.5373 H   0  0  0  0  0  0  0  0  0  0  0  0
    9.8474    3.0820    8.3651 H   0  0  0  0  0  0  0  0  0  0  0  0
  1  3  2  0
  1  4  1  0
  2  4  1  0
  1  5  1  0
  2  6  1  0
  5  6  1  0
  6  7  2  3
  5  8  1  0
  4 10  1  0
 10 11  2  0
 11 12  1  0
 12 13  2  0
 13 14  1  0
 10 15  1  0
 14 15  2  0
  9 16  2  0
  9 17  1  0
 14 18  1  0
 17 18  2  0
 18 19  1  0
 16 20  1  0
 19 20  2  0
  2 21  1  0
  7 22  1  0
  8 23  1  0
  8 24  1  0
  8 25  1  0
 11 26  1  0
 12 27  1  0
 13 28  1  0
 15 29  1  0
 16 30  1  0
 17 31  1  0
 19 32  1  0
 20 33  1  0
 34 35  1  0
 35 36  2  0
 36 37  1  0
 37 38  2  0
 38 34  1  0
 35 39  1  0
 37 40  1  0
  4 34  1  6
M  END
>  <attachment_point>  (359) 
21

>  <score>  (359) 
<NA>

$$$$
4djw
     RDKit          3D

 41 43  0  0  0  0  0  0  0  0999 V2000
   22.4950   11.8750   22.5810 C   0  0  0  0  0  0  0  0  0  0  0  0
   22.5380    9.4930   22.4640 N   0  0  0  0  0  0  0  0  0  0  0  0
   22.3600   13.0630   22.3480 O   0  0  0  0  0  0  0  0  0  0  0  0
   22.3390   10.6680   21.5610 C   0  0  2  0  0  0  0  0  0  0  0  0
   22.7860   11.3350   23.8120 N   0  0  0  0  0  0  0  0  0  0  0  0
   22.7800    9.9140   23.7010 C   0  0  0  0  0  0  0  0  0  0  0  0
   22.9970    9.1110   24.7490 N   0  0  0  0  0  0  0  0  0  0  0  0
   23.0220   12.1410   25.0180 C   0  0  0  0  0  0  0  0  0  0  0  0
   29.1260    9.8230   21.7090 N   0  0  0  0  0  0  0  0  0  0  0  0
   23.4880   10.6920   20.5300 C   0  0  0  0  0  0  0  0  0  0  0  0
   23.2110   10.7890   19.1730 C   0  0  0  0  0  0  0  0  0  0  0  0
   24.2350   10.8650   18.2430 C   0  0  0  0  0  0  0  0  0  0  0  0
   25.5500   10.8410   18.6560 C   0  0  0  0  0  0  0  0  0  0  0  0
   25.8710   10.7460   20.0070 C   0  0  0  0  0  0  0  0  0  0  0  0
   24.8260   10.6610   20.9430 C   0  0  0  0  0  0  0  0  0  0  0  0
   29.8540   10.9130   21.4510 C   0  0  0  0  0  0  0  0  0  0  0  0
   27.8830    9.7800   21.2080 C   0  0  0  0  0  0  0  0  0  0  0  0
   27.3000   10.8010   20.4650 C   0  0  0  0  0  0  0  0  0  0  0  0
   28.0930   11.9190   20.2200 C   0  0  0  0  0  0  0  0  0  0  0  0
   29.3850   11.9780   20.7130 C   0  0  0  0  0  0  0  0  0  0  0  0
    0.0000    0.0000    0.0000 H   0  0  0  0  0  0  0  0  0  0  0  0
    0.0000    0.0000    0.0000 H   0  0  0  0  0  0  0  0  0  0  0  0
    0.0000    0.0000    0.0000 H   0  0  0  0  0  0  0  0  0  0  0  0
    0.0000    0.0000    0.0000 H   0  0  0  0  0  0  0  0  0  0  0  0
    0.0000    0.0000    0.0000 H   0  0  0  0  0  0  0  0  0  0  0  0
    0.0000    0.0000    0.0000 H   0  0  0  0  0  0  0  0  0  0  0  0
    0.0000    0.0000    0.0000 H   0  0  0  0  0  0  0  0  0  0  0  0
    0.0000    0.0000    0.0000 H   0  0  0  0  0  0  0  0  0  0  0  0
    0.0000    0.0000    0.0000 H   0  0  0  0  0  0  0  0  0  0  0  0
    0.0000    0.0000    0.0000 H   0  0  0  0  0  0  0  0  0  0  0  0
    0.0000    0.0000    0.0000 H   0  0  0  0  0  0  0  0  0  0  0  0
    0.0000    0.0000    0.0000 H   0  0  0  0  0  0  0  0  0  0  0  0
    0.0000    0.0000    0.0000 H   0  0  0  0  0  0  0  0  0  0  0  0
   10.8874    5.1993   10.5082 O   0  0  0  0  0  0  0  0  0  0  0  0
   10.1714    4.1915   11.1733 C   0  0  0  0  0  0  0  0  0  0  0  0
    9.1350    3.6936   10.1710 C   0  0  0  0  0  0  0  0  0  0  0  0
    8.3493    4.7939    9.8537 F   0  0  0  0  0  0  0  0  0  0  0  0
   10.8576    3.3739   11.4170 H   0  0  0  0  0  0  0  0  0  0  0  0
    9.6888    4.5873   12.0919 H   0  0  0  0  0  0  0  0  0  0  0  0
    8.5275    2.9157   10.6461 H   0  0  0  0  0  0  0  0  0  0  0  0
    9.6834    3.3179    9.2941 H   0  0  0  0  0  0  0  0  0  0  0  0
  1  3  2  0
  1  4  1  0
  2  4  1  0
  1  5  1  0
  2  6  1  0
  5  6  1  0
  6  7  2  3
  5  8  1  0
  4 10  1  0
 10 11  2  0
 11 12  1  0
 12 13  2  0
 13 14  1  0
 10 15  1  0
 14 15  2  0
  9 16  2  0
  9 17  1  0
 14 18  1  0
 17 18  2  0
 18 19  1  0
 16 20  1  0
 19 20  2  0
  2 21  1  0
  7 22  1  0
  8 23  1  0
  8 24  1  0
  8 25  1  0
 11 26  1  0
 12 27  1  0
 13 28  1  0
 15 29  1  0
 16 30  1  0
 17 31  1  0
 19 32  1  0
 20 33  1  0
 34 35  1  0
 35 36  1  0
 36 37  1  0
 35 38  1  0
 35 39  1  0
 36 40  1  0
 36 41  1  0
  4 34  1  6
M  END
>  <attachment_point>  (360) 
21

>  <score>  (360) 
<NA>

$$$$
4djw
     RDKit          3D

 50 53  0  0  0  0  0  0  0  0999 V2000
   22.4950   11.8750   22.5810 C   0  0  0  0  0  0  0  0  0  0  0  0
   22.5380    9.4930   22.4640 N   0  0  0  0  0  0  0  0  0  0  0  0
   22.3600   13.0630   22.3480 O   0  0  0  0  0  0  0  0  0  0  0  0
   22.3390   10.6680   21.5610 C   0  0  2  0  0  0  0  0  0  0  0  0
   22.7860   11.3350   23.8120 N   0  0  0  0  0  0  0  0  0  0  0  0
   22.7800    9.9140   23.7010 C   0  0  0  0  0  0  0  0  0  0  0  0
   22.9970    9.1110   24.7490 N   0  0  0  0  0  0  0  0  0  0  0  0
   23.0220   12.1410   25.0180 C   0  0  0  0  0  0  0  0  0  0  0  0
   29.1260    9.8230   21.7090 N   0  0  0  0  0  0  0  0  0  0  0  0
   23.4880   10.6920   20.5300 C   0  0  0  0  0  0  0  0  0  0  0  0
   23.2110   10.7890   19.1730 C   0  0  0  0  0  0  0  0  0  0  0  0
   24.2350   10.8650   18.2430 C   0  0  0  0  0  0  0  0  0  0  0  0
   25.5500   10.8410   18.6560 C   0  0  0  0  0  0  0  0  0  0  0  0
   25.8710   10.7460   20.0070 C   0  0  0  0  0  0  0  0  0  0  0  0
   24.8260   10.6610   20.9430 C   0  0  0  0  0  0  0  0  0  0  0  0
   29.8540   10.9130   21.4510 C   0  0  0  0  0  0  0  0  0  0  0  0
   27.8830    9.7800   21.2080 C   0  0  0  0  0  0  0  0  0  0  0  0
   27.3000   10.8010   20.4650 C   0  0  0  0  0  0  0  0  0  0  0  0
   28.0930   11.9190   20.2200 C   0  0  0  0  0  0  0  0  0  0  0  0
   29.3850   11.9780   20.7130 C   0  0  0  0  0  0  0  0  0  0  0  0
    0.0000    0.0000    0.0000 H   0  0  0  0  0  0  0  0  0  0  0  0
    0.0000    0.0000    0.0000 H   0  0  0  0  0  0  0  0  0  0  0  0
    0.0000    0.0000    0.0000 H   0  0  0  0  0  0  0  0  0  0  0  0
    0.0000    0.0000    0.0000 H   0  0  0  0  0  0  0  0  0  0  0  0
    0.0000    0.0000    0.0000 H   0  0  0  0  0  0  0  0  0  0  0  0
    0.0000    0.0000    0.0000 H   0  0  0  0  0  0  0  0  0  0  0  0
    0.0000    0.0000    0.0000 H   0  0  0  0  0  0  0  0  0  0  0  0
    0.0000    0.0000    0.0000 H   0  0  0  0  0  0  0  0  0  0  0  0
    0.0000    0.0000    0.0000 H   0  0  0  0  0  0  0  0  0  0  0  0
    0.0000    0.0000    0.0000 H   0  0  0  0  0  0  0  0  0  0  0  0
    0.0000    0.0000    0.0000 H   0  0  0  0  0  0  0  0  0  0  0  0
    0.0000    0.0000    0.0000 H   0  0  0  0  0  0  0  0  0  0  0  0
    0.0000    0.0000    0.0000 H   0  0  0  0  0  0  0  0  0  0  0  0
   10.8838    5.1976   10.5048 N   0  0  0  0  0  0  0  0  0  0  0  0
   11.4274    4.7127    9.2985 C   0  0  0  0  0  0  0  0  0  0  0  0
   11.6206    5.5811    8.2439 C   0  0  0  0  0  0  0  0  0  0  0  0
   12.1500    5.1398    7.0508 C   0  0  0  0  0  0  0  0  0  0  0  0
   12.4743    3.8018    6.9620 C   0  0  0  0  0  0  0  0  0  0  0  0
   12.2784    2.9403    8.0200 C   0  0  0  0  0  0  0  0  0  0  0  0
   11.7471    3.3682    9.2265 C   0  0  0  0  0  0  0  0  0  0  0  0
   11.5399    2.4600   10.3440 C   0  0  0  0  0  0  0  0  0  0  0  0
   11.8611    1.0908   10.2822 N   0  0  0  0  0  0  0  0  0  0  0  0
   11.0546    2.9311   11.3977 O   0  0  0  0  0  0  0  0  0  0  0  0
    9.8694    5.2209   10.7062 H   0  0  0  0  0  0  0  0  0  0  0  0
   11.3669    6.6336    8.3099 H   0  0  0  0  0  0  0  0  0  0  0  0
   12.3127    5.8042    6.2026 H   0  0  0  0  0  0  0  0  0  0  0  0
   12.8921    3.4450    6.0255 H   0  0  0  0  0  0  0  0  0  0  0  0
   12.5401    1.8912    7.9302 H   0  0  0  0  0  0  0  0  0  0  0  0
   11.2963    0.4308    9.7074 H   0  0  0  0  0  0  0  0  0  0  0  0
   12.6667    0.6780   10.8005 H   0  0  0  0  0  0  0  0  0  0  0  0
  1  3  2  0
  1  4  1  0
  2  4  1  0
  1  5  1  0
  2  6  1  0
  5  6  1  0
  6  7  2  3
  5  8  1  0
  4 10  1  0
 10 11  2  0
 11 12  1  0
 12 13  2  0
 13 14  1  0
 10 15  1  0
 14 15  2  0
  9 16  2  0
  9 17  1  0
 14 18  1  0
 17 18  2  0
 18 19  1  0
 16 20  1  0
 19 20  2  0
  2 21  1  0
  7 22  1  0
  8 23  1  0
  8 24  1  0
  8 25  1  0
 11 26  1  0
 12 27  1  0
 13 28  1  0
 15 29  1  0
 16 30  1  0
 17 31  1  0
 19 32  1  0
 20 33  1  0
 34 35  1  0
 35 36  2  0
 36 37  1  0
 37 38  2  0
 38 39  1  0
 39 40  2  0
 40 41  1  0
 41 42  1  0
 41 43  2  0
 40 35  1  0
 34 44  1  0
 36 45  1  0
 37 46  1  0
 38 47  1  0
 39 48  1  0
 42 49  1  0
 42 50  1  0
  4 34  1  6
M  END
>  <attachment_point>  (361) 
21

>  <score>  (361) 
<NA>

$$$$
4djw
     RDKit          3D

 45 47  0  0  0  0  0  0  0  0999 V2000
   22.4950   11.8750   22.5810 C   0  0  0  0  0  0  0  0  0  0  0  0
   22.5380    9.4930   22.4640 N   0  0  0  0  0  0  0  0  0  0  0  0
   22.3600   13.0630   22.3480 O   0  0  0  0  0  0  0  0  0  0  0  0
   22.3390   10.6680   21.5610 C   0  0  2  0  0  0  0  0  0  0  0  0
   22.7860   11.3350   23.8120 N   0  0  0  0  0  0  0  0  0  0  0  0
   22.7800    9.9140   23.7010 C   0  0  0  0  0  0  0  0  0  0  0  0
   22.9970    9.1110   24.7490 N   0  0  0  0  0  0  0  0  0  0  0  0
   23.0220   12.1410   25.0180 C   0  0  0  0  0  0  0  0  0  0  0  0
   29.1260    9.8230   21.7090 N   0  0  0  0  0  0  0  0  0  0  0  0
   23.4880   10.6920   20.5300 C   0  0  0  0  0  0  0  0  0  0  0  0
   23.2110   10.7890   19.1730 C   0  0  0  0  0  0  0  0  0  0  0  0
   24.2350   10.8650   18.2430 C   0  0  0  0  0  0  0  0  0  0  0  0
   25.5500   10.8410   18.6560 C   0  0  0  0  0  0  0  0  0  0  0  0
   25.8710   10.7460   20.0070 C   0  0  0  0  0  0  0  0  0  0  0  0
   24.8260   10.6610   20.9430 C   0  0  0  0  0  0  0  0  0  0  0  0
   29.8540   10.9130   21.4510 C   0  0  0  0  0  0  0  0  0  0  0  0
   27.8830    9.7800   21.2080 C   0  0  0  0  0  0  0  0  0  0  0  0
   27.3000   10.8010   20.4650 C   0  0  0  0  0  0  0  0  0  0  0  0
   28.0930   11.9190   20.2200 C   0  0  0  0  0  0  0  0  0  0  0  0
   29.3850   11.9780   20.7130 C   0  0  0  0  0  0  0  0  0  0  0  0
    0.0000    0.0000    0.0000 H   0  0  0  0  0  0  0  0  0  0  0  0
    0.0000    0.0000    0.0000 H   0  0  0  0  0  0  0  0  0  0  0  0
    0.0000    0.0000    0.0000 H   0  0  0  0  0  0  0  0  0  0  0  0
    0.0000    0.0000    0.0000 H   0  0  0  0  0  0  0  0  0  0  0  0
    0.0000    0.0000    0.0000 H   0  0  0  0  0  0  0  0  0  0  0  0
    0.0000    0.0000    0.0000 H   0  0  0  0  0  0  0  0  0  0  0  0
    0.0000    0.0000    0.0000 H   0  0  0  0  0  0  0  0  0  0  0  0
    0.0000    0.0000    0.0000 H   0  0  0  0  0  0  0  0  0  0  0  0
    0.0000    0.0000    0.0000 H   0  0  0  0  0  0  0  0  0  0  0  0
    0.0000    0.0000    0.0000 H   0  0  0  0  0  0  0  0  0  0  0  0
    0.0000    0.0000    0.0000 H   0  0  0  0  0  0  0  0  0  0  0  0
    0.0000    0.0000    0.0000 H   0  0  0  0  0  0  0  0  0  0  0  0
    0.0000    0.0000    0.0000 H   0  0  0  0  0  0  0  0  0  0  0  0
   10.8605    5.1864   10.4823 C   0  0  0  0  0  0  0  0  0  0  0  0
    9.7340    4.5718   11.2916 C   0  0  0  0  0  0  0  0  0  0  0  0
    8.6593    4.0507   10.4378 C   0  0  0  0  0  0  0  0  0  0  0  0
    8.7344    4.1396    9.1829 O   0  0  0  0  0  0  0  0  0  0  0  0
    7.5077    3.4344   10.9787 N   0  0  0  0  0  0  0  0  0  0  0  0
    6.5124    2.9514   10.1993 O   0  0  0  0  0  0  0  0  0  0  0  0
   11.4178    4.4575    9.8874 H   0  0  0  0  0  0  0  0  0  0  0  0
   10.5078    6.0639    9.9011 H   0  0  0  0  0  0  0  0  0  0  0  0
   10.1537    3.7882   11.9540 H   0  0  0  0  0  0  0  0  0  0  0  0
    9.3683    5.3898   11.9667 H   0  0  0  0  0  0  0  0  0  0  0  0
    7.4706    3.3731   12.0362 H   0  0  0  0  0  0  0  0  0  0  0  0
    6.1721    3.7541    9.6902 H   0  0  0  0  0  0  0  0  0  0  0  0
  1  3  2  0
  1  4  1  0
  2  4  1  0
  1  5  1  0
  2  6  1  0
  5  6  1  0
  6  7  2  3
  5  8  1  0
  4 10  1  0
 10 11  2  0
 11 12  1  0
 12 13  2  0
 13 14  1  0
 10 15  1  0
 14 15  2  0
  9 16  2  0
  9 17  1  0
 14 18  1  0
 17 18  2  0
 18 19  1  0
 16 20  1  0
 19 20  2  0
  2 21  1  0
  7 22  1  0
  8 23  1  0
  8 24  1  0
  8 25  1  0
 11 26  1  0
 12 27  1  0
 13 28  1  0
 15 29  1  0
 16 30  1  0
 17 31  1  0
 19 32  1  0
 20 33  1  0
 34 35  1  0
 35 36  1  0
 36 37  2  0
 36 38  1  0
 38 39  1  0
 34 40  1  0
 34 41  1  0
 35 42  1  0
 35 43  1  0
 38 44  1  0
 39 45  1  0
  4 34  1  6
M  END
>  <attachment_point>  (362) 
21

>  <score>  (362) 
<NA>

$$$$
4djw
     RDKit          3D

 40 42  0  0  0  0  0  0  0  0999 V2000
   22.4950   11.8750   22.5810 C   0  0  0  0  0  0  0  0  0  0  0  0
   22.5380    9.4930   22.4640 N   0  0  0  0  0  0  0  0  0  0  0  0
   22.3600   13.0630   22.3480 O   0  0  0  0  0  0  0  0  0  0  0  0
   22.3390   10.6680   21.5610 C   0  0  2  0  0  0  0  0  0  0  0  0
   22.7860   11.3350   23.8120 N   0  0  0  0  0  0  0  0  0  0  0  0
   22.7800    9.9140   23.7010 C   0  0  0  0  0  0  0  0  0  0  0  0
   22.9970    9.1110   24.7490 N   0  0  0  0  0  0  0  0  0  0  0  0
   23.0220   12.1410   25.0180 C   0  0  0  0  0  0  0  0  0  0  0  0
   29.1260    9.8230   21.7090 N   0  0  0  0  0  0  0  0  0  0  0  0
   23.4880   10.6920   20.5300 C   0  0  0  0  0  0  0  0  0  0  0  0
   23.2110   10.7890   19.1730 C   0  0  0  0  0  0  0  0  0  0  0  0
   24.2350   10.8650   18.2430 C   0  0  0  0  0  0  0  0  0  0  0  0
   25.5500   10.8410   18.6560 C   0  0  0  0  0  0  0  0  0  0  0  0
   25.8710   10.7460   20.0070 C   0  0  0  0  0  0  0  0  0  0  0  0
   24.8260   10.6610   20.9430 C   0  0  0  0  0  0  0  0  0  0  0  0
   29.8540   10.9130   21.4510 C   0  0  0  0  0  0  0  0  0  0  0  0
   27.8830    9.7800   21.2080 C   0  0  0  0  0  0  0  0  0  0  0  0
   27.3000   10.8010   20.4650 C   0  0  0  0  0  0  0  0  0  0  0  0
   28.0930   11.9190   20.2200 C   0  0  0  0  0  0  0  0  0  0  0  0
   29.3850   11.9780   20.7130 C   0  0  0  0  0  0  0  0  0  0  0  0
    0.0000    0.0000    0.0000 H   0  0  0  0  0  0  0  0  0  0  0  0
    0.0000    0.0000    0.0000 H   0  0  0  0  0  0  0  0  0  0  0  0
    0.0000    0.0000    0.0000 H   0  0  0  0  0  0  0  0  0  0  0  0
    0.0000    0.0000    0.0000 H   0  0  0  0  0  0  0  0  0  0  0  0
    0.0000    0.0000    0.0000 H   0  0  0  0  0  0  0  0  0  0  0  0
    0.0000    0.0000    0.0000 H   0  0  0  0  0  0  0  0  0  0  0  0
    0.0000    0.0000    0.0000 H   0  0  0  0  0  0  0  0  0  0  0  0
    0.0000    0.0000    0.0000 H   0  0  0  0  0  0  0  0  0  0  0  0
    0.0000    0.0000    0.0000 H   0  0  0  0  0  0  0  0  0  0  0  0
    0.0000    0.0000    0.0000 H   0  0  0  0  0  0  0  0  0  0  0  0
    0.0000    0.0000    0.0000 H   0  0  0  0  0  0  0  0  0  0  0  0
    0.0000    0.0000    0.0000 H   0  0  0  0  0  0  0  0  0  0  0  0
    0.0000    0.0000    0.0000 H   0  0  0  0  0  0  0  0  0  0  0  0
   10.9710    5.2392   10.5890 O   0  0  0  0  0  0  0  0  0  0  0  0
    9.6495    5.7016   10.6240 C   0  0  0  0  0  0  0  0  0  0  0  0
    8.9207    5.0300    9.5350 C   0  0  0  0  0  0  0  0  0  0  0  0
    8.3094    4.4725    8.6488 C   0  0  0  0  0  0  0  0  0  0  0  0
    9.6142    6.8126   10.5003 H   0  0  0  0  0  0  0  0  0  0  0  0
    9.2099    5.3904   11.5773 H   0  0  0  0  0  0  0  0  0  0  0  0
    7.7615    3.9975    7.8768 H   0  0  0  0  0  0  0  0  0  0  0  0
  1  3  2  0
  1  4  1  0
  2  4  1  0
  1  5  1  0
  2  6  1  0
  5  6  1  0
  6  7  2  3
  5  8  1  0
  4 10  1  0
 10 11  2  0
 11 12  1  0
 12 13  2  0
 13 14  1  0
 10 15  1  0
 14 15  2  0
  9 16  2  0
  9 17  1  0
 14 18  1  0
 17 18  2  0
 18 19  1  0
 16 20  1  0
 19 20  2  0
  2 21  1  0
  7 22  1  0
  8 23  1  0
  8 24  1  0
  8 25  1  0
 11 26  1  0
 12 27  1  0
 13 28  1  0
 15 29  1  0
 16 30  1  0
 17 31  1  0
 19 32  1  0
 20 33  1  0
 34 35  1  0
 35 36  1  0
 36 37  3  0
 35 38  1  0
 35 39  1  0
 37 40  1  0
  4 34  1  6
M  END
>  <attachment_point>  (363) 
21

>  <score>  (363) 
<NA>

$$$$
4djw
     RDKit          3D

 39 42  0  0  0  0  0  0  0  0999 V2000
   22.4950   11.8750   22.5810 C   0  0  0  0  0  0  0  0  0  0  0  0
   22.5380    9.4930   22.4640 N   0  0  0  0  0  0  0  0  0  0  0  0
   22.3600   13.0630   22.3480 O   0  0  0  0  0  0  0  0  0  0  0  0
   22.3390   10.6680   21.5610 C   0  0  2  0  0  0  0  0  0  0  0  0
   22.7860   11.3350   23.8120 N   0  0  0  0  0  0  0  0  0  0  0  0
   22.7800    9.9140   23.7010 C   0  0  0  0  0  0  0  0  0  0  0  0
   22.9970    9.1110   24.7490 N   0  0  0  0  0  0  0  0  0  0  0  0
   23.0220   12.1410   25.0180 C   0  0  0  0  0  0  0  0  0  0  0  0
   29.1260    9.8230   21.7090 N   0  0  0  0  0  0  0  0  0  0  0  0
   23.4880   10.6920   20.5300 C   0  0  0  0  0  0  0  0  0  0  0  0
   23.2110   10.7890   19.1730 C   0  0  0  0  0  0  0  0  0  0  0  0
   24.2350   10.8650   18.2430 C   0  0  0  0  0  0  0  0  0  0  0  0
   25.5500   10.8410   18.6560 C   0  0  0  0  0  0  0  0  0  0  0  0
   25.8710   10.7460   20.0070 C   0  0  0  0  0  0  0  0  0  0  0  0
   24.8260   10.6610   20.9430 C   0  0  0  0  0  0  0  0  0  0  0  0
   29.8540   10.9130   21.4510 C   0  0  0  0  0  0  0  0  0  0  0  0
   27.8830    9.7800   21.2080 C   0  0  0  0  0  0  0  0  0  0  0  0
   27.3000   10.8010   20.4650 C   0  0  0  0  0  0  0  0  0  0  0  0
   28.0930   11.9190   20.2200 C   0  0  0  0  0  0  0  0  0  0  0  0
   29.3850   11.9780   20.7130 C   0  0  0  0  0  0  0  0  0  0  0  0
    0.0000    0.0000    0.0000 H   0  0  0  0  0  0  0  0  0  0  0  0
    0.0000    0.0000    0.0000 H   0  0  0  0  0  0  0  0  0  0  0  0
    0.0000    0.0000    0.0000 H   0  0  0  0  0  0  0  0  0  0  0  0
    0.0000    0.0000    0.0000 H   0  0  0  0  0  0  0  0  0  0  0  0
    0.0000    0.0000    0.0000 H   0  0  0  0  0  0  0  0  0  0  0  0
    0.0000    0.0000    0.0000 H   0  0  0  0  0  0  0  0  0  0  0  0
    0.0000    0.0000    0.0000 H   0  0  0  0  0  0  0  0  0  0  0  0
    0.0000    0.0000    0.0000 H   0  0  0  0  0  0  0  0  0  0  0  0
    0.0000    0.0000    0.0000 H   0  0  0  0  0  0  0  0  0  0  0  0
    0.0000    0.0000    0.0000 H   0  0  0  0  0  0  0  0  0  0  0  0
    0.0000    0.0000    0.0000 H   0  0  0  0  0  0  0  0  0  0  0  0
    0.0000    0.0000    0.0000 H   0  0  0  0  0  0  0  0  0  0  0  0
    0.0000    0.0000    0.0000 H   0  0  0  0  0  0  0  0  0  0  0  0
   10.8672    5.1896   10.4887 C   0  0  0  0  0  0  0  0  0  0  0  0
    9.7549    5.8521   10.1775 N   0  0  0  0  0  0  0  0  0  0  0  0
    9.1183    5.1111    9.2840 N   0  0  0  0  0  0  0  0  0  0  0  0
    9.7967    4.0061    9.0263 N   0  0  0  0  0  0  0  0  0  0  0  0
   10.8804    4.0638    9.7785 N   0  0  0  0  0  0  0  0  0  0  0  0
    9.5433    3.2385    8.3689 H   0  0  0  0  0  0  0  0  0  0  0  0
  1  3  2  0
  1  4  1  0
  2  4  1  0
  1  5  1  0
  2  6  1  0
  5  6  1  0
  6  7  2  3
  5  8  1  0
  4 10  1  6
 10 11  2  0
 11 12  1  0
 12 13  2  0
 13 14  1  0
 10 15  1  0
 14 15  2  0
  9 16  2  0
  9 17  1  0
 14 18  1  0
 17 18  2  0
 18 19  1  0
 16 20  1  0
 19 20  2  0
  2 21  1  0
  7 22  1  0
  8 23  1  0
  8 24  1  0
  8 25  1  0
 11 26  1  0
 12 27  1  0
 13 28  1  0
 15 29  1  0
 16 30  1  0
 17 31  1  0
 19 32  1  0
 20 33  1  0
 34 35  1  0
 35 36  2  0
 36 37  1  0
 37 38  1  0
 38 34  2  0
 37 39  1  0
  4 34  1  0
M  END
>  <attachment_point>  (364) 
21

>  <score>  (364) 
<NA>

$$$$
4djw
     RDKit          3D

 53 56  0  0  0  0  0  0  0  0999 V2000
   22.4950   11.8750   22.5810 C   0  0  0  0  0  0  0  0  0  0  0  0
   22.5380    9.4930   22.4640 N   0  0  0  0  0  0  0  0  0  0  0  0
   22.3600   13.0630   22.3480 O   0  0  0  0  0  0  0  0  0  0  0  0
   22.3390   10.6680   21.5610 C   0  0  2  0  0  0  0  0  0  0  0  0
   22.7860   11.3350   23.8120 N   0  0  0  0  0  0  0  0  0  0  0  0
   22.7800    9.9140   23.7010 C   0  0  0  0  0  0  0  0  0  0  0  0
   22.9970    9.1110   24.7490 N   0  0  0  0  0  0  0  0  0  0  0  0
   23.0220   12.1410   25.0180 C   0  0  0  0  0  0  0  0  0  0  0  0
   29.1260    9.8230   21.7090 N   0  0  0  0  0  0  0  0  0  0  0  0
   23.4880   10.6920   20.5300 C   0  0  0  0  0  0  0  0  0  0  0  0
   23.2110   10.7890   19.1730 C   0  0  0  0  0  0  0  0  0  0  0  0
   24.2350   10.8650   18.2430 C   0  0  0  0  0  0  0  0  0  0  0  0
   25.5500   10.8410   18.6560 C   0  0  0  0  0  0  0  0  0  0  0  0
   25.8710   10.7460   20.0070 C   0  0  0  0  0  0  0  0  0  0  0  0
   24.8260   10.6610   20.9430 C   0  0  0  0  0  0  0  0  0  0  0  0
   29.8540   10.9130   21.4510 C   0  0  0  0  0  0  0  0  0  0  0  0
   27.8830    9.7800   21.2080 C   0  0  0  0  0  0  0  0  0  0  0  0
   27.3000   10.8010   20.4650 C   0  0  0  0  0  0  0  0  0  0  0  0
   28.0930   11.9190   20.2200 C   0  0  0  0  0  0  0  0  0  0  0  0
   29.3850   11.9780   20.7130 C   0  0  0  0  0  0  0  0  0  0  0  0
    0.0000    0.0000    0.0000 H   0  0  0  0  0  0  0  0  0  0  0  0
    0.0000    0.0000    0.0000 H   0  0  0  0  0  0  0  0  0  0  0  0
    0.0000    0.0000    0.0000 H   0  0  0  0  0  0  0  0  0  0  0  0
    0.0000    0.0000    0.0000 H   0  0  0  0  0  0  0  0  0  0  0  0
    0.0000    0.0000    0.0000 H   0  0  0  0  0  0  0  0  0  0  0  0
    0.0000    0.0000    0.0000 H   0  0  0  0  0  0  0  0  0  0  0  0
    0.0000    0.0000    0.0000 H   0  0  0  0  0  0  0  0  0  0  0  0
    0.0000    0.0000    0.0000 H   0  0  0  0  0  0  0  0  0  0  0  0
    0.0000    0.0000    0.0000 H   0  0  0  0  0  0  0  0  0  0  0  0
    0.0000    0.0000    0.0000 H   0  0  0  0  0  0  0  0  0  0  0  0
    0.0000    0.0000    0.0000 H   0  0  0  0  0  0  0  0  0  0  0  0
    0.0000    0.0000    0.0000 H   0  0  0  0  0  0  0  0  0  0  0  0
    0.0000    0.0000    0.0000 H   0  0  0  0  0  0  0  0  0  0  0  0
   10.8912    5.2011   10.5119 N   0  0  0  0  0  0  0  0  0  0  0  0
   11.4281    5.6433    9.2186 C   0  0  0  0  0  0  0  0  0  0  0  0
   10.3657    5.3258    8.2192 C   0  0  0  0  0  0  0  0  0  0  0  0
   10.1673    3.8595    8.1174 C   0  0  0  0  0  0  0  0  0  0  0  0
   11.0359    3.3488    6.9585 C   0  0  0  0  0  0  0  0  0  0  0  0
   12.3652    3.6046    7.1540 O   0  0  0  0  0  0  0  0  0  0  0  0
   10.3708    3.0811    9.3613 C   0  0  0  0  0  0  0  0  0  0  0  0
   10.9329    3.7790   10.5252 C   0  0  0  0  0  0  0  0  0  0  0  0
   11.6643    6.7249    9.2401 H   0  0  0  0  0  0  0  0  0  0  0  0
   12.3235    5.0282    9.0085 H   0  0  0  0  0  0  0  0  0  0  0  0
   10.6617    5.7709    7.2466 H   0  0  0  0  0  0  0  0  0  0  0  0
    9.3951    5.8223    8.5106 H   0  0  0  0  0  0  0  0  0  0  0  0
    9.1130    3.7109    7.7336 H   0  0  0  0  0  0  0  0  0  0  0  0
   10.6412    3.8588    6.0374 H   0  0  0  0  0  0  0  0  0  0  0  0
   10.8872    2.2616    6.7977 H   0  0  0  0  0  0  0  0  0  0  0  0
   12.7139    4.1668    6.4170 H   0  0  0  0  0  0  0  0  0  0  0  0
    9.3977    2.5926    9.6706 H   0  0  0  0  0  0  0  0  0  0  0  0
   11.0224    2.1935    9.0986 H   0  0  0  0  0  0  0  0  0  0  0  0
   10.4338    3.4438   11.4832 H   0  0  0  0  0  0  0  0  0  0  0  0
   12.0103    3.4697   10.6727 H   0  0  0  0  0  0  0  0  0  0  0  0
  1  3  2  0
  1  4  1  0
  2  4  1  0
  1  5  1  0
  2  6  1  0
  5  6  1  0
  6  7  2  3
  5  8  1  0
  4 10  1  0
 10 11  2  0
 11 12  1  0
 12 13  2  0
 13 14  1  0
 10 15  1  0
 14 15  2  0
  9 16  2  0
  9 17  1  0
 14 18  1  0
 17 18  2  0
 18 19  1  0
 16 20  1  0
 19 20  2  0
  2 21  1  0
  7 22  1  0
  8 23  1  0
  8 24  1  0
  8 25  1  0
 11 26  1  0
 12 27  1  0
 13 28  1  0
 15 29  1  0
 16 30  1  0
 17 31  1  0
 19 32  1  0
 20 33  1  0
 34 35  1  0
 35 36  1  0
 36 37  1  0
 37 38  1  0
 38 39  1  0
 37 40  1  0
 40 41  1  0
 41 34  1  0
 35 42  1  0
 35 43  1  0
 36 44  1  0
 36 45  1  0
 37 46  1  0
 38 47  1  0
 38 48  1  0
 39 49  1  0
 40 50  1  0
 40 51  1  0
 41 52  1  0
 41 53  1  0
  4 34  1  6
M  END
>  <attachment_point>  (365) 
21

>  <score>  (365) 
<NA>

$$$$
4djw
     RDKit          3D

 45 48  0  0  0  0  0  0  0  0999 V2000
   22.4950   11.8750   22.5810 C   0  0  0  0  0  0  0  0  0  0  0  0
   22.5380    9.4930   22.4640 N   0  0  0  0  0  0  0  0  0  0  0  0
   22.3600   13.0630   22.3480 O   0  0  0  0  0  0  0  0  0  0  0  0
   22.3390   10.6680   21.5610 C   0  0  2  0  0  0  0  0  0  0  0  0
   22.7860   11.3350   23.8120 N   0  0  0  0  0  0  0  0  0  0  0  0
   22.7800    9.9140   23.7010 C   0  0  0  0  0  0  0  0  0  0  0  0
   22.9970    9.1110   24.7490 N   0  0  0  0  0  0  0  0  0  0  0  0
   23.0220   12.1410   25.0180 C   0  0  0  0  0  0  0  0  0  0  0  0
   29.1260    9.8230   21.7090 N   0  0  0  0  0  0  0  0  0  0  0  0
   23.4880   10.6920   20.5300 C   0  0  0  0  0  0  0  0  0  0  0  0
   23.2110   10.7890   19.1730 C   0  0  0  0  0  0  0  0  0  0  0  0
   24.2350   10.8650   18.2430 C   0  0  0  0  0  0  0  0  0  0  0  0
   25.5500   10.8410   18.6560 C   0  0  0  0  0  0  0  0  0  0  0  0
   25.8710   10.7460   20.0070 C   0  0  0  0  0  0  0  0  0  0  0  0
   24.8260   10.6610   20.9430 C   0  0  0  0  0  0  0  0  0  0  0  0
   29.8540   10.9130   21.4510 C   0  0  0  0  0  0  0  0  0  0  0  0
   27.8830    9.7800   21.2080 C   0  0  0  0  0  0  0  0  0  0  0  0
   27.3000   10.8010   20.4650 C   0  0  0  0  0  0  0  0  0  0  0  0
   28.0930   11.9190   20.2200 C   0  0  0  0  0  0  0  0  0  0  0  0
   29.3850   11.9780   20.7130 C   0  0  0  0  0  0  0  0  0  0  0  0
    0.0000    0.0000    0.0000 H   0  0  0  0  0  0  0  0  0  0  0  0
    0.0000    0.0000    0.0000 H   0  0  0  0  0  0  0  0  0  0  0  0
    0.0000    0.0000    0.0000 H   0  0  0  0  0  0  0  0  0  0  0  0
    0.0000    0.0000    0.0000 H   0  0  0  0  0  0  0  0  0  0  0  0
    0.0000    0.0000    0.0000 H   0  0  0  0  0  0  0  0  0  0  0  0
    0.0000    0.0000    0.0000 H   0  0  0  0  0  0  0  0  0  0  0  0
    0.0000    0.0000    0.0000 H   0  0  0  0  0  0  0  0  0  0  0  0
    0.0000    0.0000    0.0000 H   0  0  0  0  0  0  0  0  0  0  0  0
    0.0000    0.0000    0.0000 H   0  0  0  0  0  0  0  0  0  0  0  0
    0.0000    0.0000    0.0000 H   0  0  0  0  0  0  0  0  0  0  0  0
    0.0000    0.0000    0.0000 H   0  0  0  0  0  0  0  0  0  0  0  0
    0.0000    0.0000    0.0000 H   0  0  0  0  0  0  0  0  0  0  0  0
    0.0000    0.0000    0.0000 H   0  0  0  0  0  0  0  0  0  0  0  0
   10.7646    5.1406   10.3897 C   0  0  0  0  0  0  0  0  0  0  0  0
    9.9889    4.7691    9.6666 C   0  0  0  0  0  0  0  0  0  0  0  0
    8.9925    4.2966    8.7713 C   0  0  0  0  0  0  0  0  0  0  0  0
    9.3077    4.1627    7.4385 C   0  0  0  0  0  0  0  0  0  0  0  0
    8.3747    3.7108    6.5474 C   0  0  0  0  0  0  0  0  0  0  0  0
    7.1188    3.3964    7.0221 C   0  0  0  0  0  0  0  0  0  0  0  0
    6.8026    3.5249    8.3260 N   0  0  0  0  0  0  0  0  0  0  0  0
    7.7220    3.9683    9.1939 C   0  0  0  0  0  0  0  0  0  0  0  0
   10.2965    4.4057    7.0386 H   0  0  0  0  0  0  0  0  0  0  0  0
    8.6348    3.6062    5.4816 H   0  0  0  0  0  0  0  0  0  0  0  0
    6.4155    3.0442    6.2845 H   0  0  0  0  0  0  0  0  0  0  0  0
    7.4974    4.0808   10.2401 H   0  0  0  0  0  0  0  0  0  0  0  0
  1  3  2  0
  1  4  1  0
  2  4  1  0
  1  5  1  0
  2  6  1  0
  5  6  1  0
  6  7  2  3
  5  8  1  0
  4 10  1  0
 10 11  2  0
 11 12  1  0
 12 13  2  0
 13 14  1  0
 10 15  1  0
 14 15  2  0
  9 16  2  0
  9 17  1  0
 14 18  1  0
 17 18  2  0
 18 19  1  0
 16 20  1  0
 19 20  2  0
  2 21  1  0
  7 22  1  0
  8 23  1  0
  8 24  1  0
  8 25  1  0
 11 26  1  0
 12 27  1  0
 13 28  1  0
 15 29  1  0
 16 30  1  0
 17 31  1  0
 19 32  1  0
 20 33  1  0
 34 35  3  0
 35 36  1  0
 36 37  2  0
 37 38  1  0
 38 39  2  0
 39 40  1  0
 40 41  2  0
 41 36  1  0
 37 42  1  0
 38 43  1  0
 39 44  1  0
 41 45  1  0
  4 34  1  6
M  END
>  <attachment_point>  (366) 
21

>  <score>  (366) 
<NA>

$$$$
4djw
     RDKit          3D

 42 44  0  0  0  0  0  0  0  0999 V2000
   22.4950   11.8750   22.5810 C   0  0  0  0  0  0  0  0  0  0  0  0
   22.5380    9.4930   22.4640 N   0  0  0  0  0  0  0  0  0  0  0  0
   22.3600   13.0630   22.3480 O   0  0  0  0  0  0  0  0  0  0  0  0
   22.3390   10.6680   21.5610 C   0  0  2  0  0  0  0  0  0  0  0  0
   22.7860   11.3350   23.8120 N   0  0  0  0  0  0  0  0  0  0  0  0
   22.7800    9.9140   23.7010 C   0  0  0  0  0  0  0  0  0  0  0  0
   22.9970    9.1110   24.7490 N   0  0  0  0  0  0  0  0  0  0  0  0
   23.0220   12.1410   25.0180 C   0  0  0  0  0  0  0  0  0  0  0  0
   29.1260    9.8230   21.7090 N   0  0  0  0  0  0  0  0  0  0  0  0
   23.4880   10.6920   20.5300 C   0  0  0  0  0  0  0  0  0  0  0  0
   23.2110   10.7890   19.1730 C   0  0  0  0  0  0  0  0  0  0  0  0
   24.2350   10.8650   18.2430 C   0  0  0  0  0  0  0  0  0  0  0  0
   25.5500   10.8410   18.6560 C   0  0  0  0  0  0  0  0  0  0  0  0
   25.8710   10.7460   20.0070 C   0  0  0  0  0  0  0  0  0  0  0  0
   24.8260   10.6610   20.9430 C   0  0  0  0  0  0  0  0  0  0  0  0
   29.8540   10.9130   21.4510 C   0  0  0  0  0  0  0  0  0  0  0  0
   27.8830    9.7800   21.2080 C   0  0  0  0  0  0  0  0  0  0  0  0
   27.3000   10.8010   20.4650 C   0  0  0  0  0  0  0  0  0  0  0  0
   28.0930   11.9190   20.2200 C   0  0  0  0  0  0  0  0  0  0  0  0
   29.3850   11.9780   20.7130 C   0  0  0  0  0  0  0  0  0  0  0  0
    0.0000    0.0000    0.0000 H   0  0  0  0  0  0  0  0  0  0  0  0
    0.0000    0.0000    0.0000 H   0  0  0  0  0  0  0  0  0  0  0  0
    0.0000    0.0000    0.0000 H   0  0  0  0  0  0  0  0  0  0  0  0
    0.0000    0.0000    0.0000 H   0  0  0  0  0  0  0  0  0  0  0  0
    0.0000    0.0000    0.0000 H   0  0  0  0  0  0  0  0  0  0  0  0
    0.0000    0.0000    0.0000 H   0  0  0  0  0  0  0  0  0  0  0  0
    0.0000    0.0000    0.0000 H   0  0  0  0  0  0  0  0  0  0  0  0
    0.0000    0.0000    0.0000 H   0  0  0  0  0  0  0  0  0  0  0  0
    0.0000    0.0000    0.0000 H   0  0  0  0  0  0  0  0  0  0  0  0
    0.0000    0.0000    0.0000 H   0  0  0  0  0  0  0  0  0  0  0  0
    0.0000    0.0000    0.0000 H   0  0  0  0  0  0  0  0  0  0  0  0
    0.0000    0.0000    0.0000 H   0  0  0  0  0  0  0  0  0  0  0  0
    0.0000    0.0000    0.0000 H   0  0  0  0  0  0  0  0  0  0  0  0
   10.8904    5.2007   10.5111 C   0  0  0  0  0  0  0  0  0  0  0  0
    9.2061    5.4323   11.0955 P   0  0  0  0  0  5  0  0  0  0  0  0
    8.4718    4.1273   10.9551 O   0  0  0  0  0  0  0  0  0  0  0  0
    9.1759    5.9009   12.7275 O   0  0  0  0  0  0  0  0  0  0  0  0
    8.4332    6.6753   10.2381 O   0  0  0  0  0  0  0  0  0  0  0  0
   11.1289    4.1368   10.2735 H   0  0  0  0  0  0  0  0  0  0  0  0
   11.0076    5.7472    9.5397 H   0  0  0  0  0  0  0  0  0  0  0  0
    8.2982    5.6680   13.0921 H   0  0  0  0  0  0  0  0  0  0  0  0
    7.7715    6.2631    9.6474 H   0  0  0  0  0  0  0  0  0  0  0  0
  1  3  2  0
  1  4  1  0
  2  4  1  0
  1  5  1  0
  2  6  1  0
  5  6  1  0
  6  7  2  3
  5  8  1  0
  4 10  1  0
 10 11  2  0
 11 12  1  0
 12 13  2  0
 13 14  1  0
 10 15  1  0
 14 15  2  0
  9 16  2  0
  9 17  1  0
 14 18  1  0
 17 18  2  0
 18 19  1  0
 16 20  1  0
 19 20  2  0
  2 21  1  0
  7 22  1  0
  8 23  1  0
  8 24  1  0
  8 25  1  0
 11 26  1  0
 12 27  1  0
 13 28  1  0
 15 29  1  0
 16 30  1  0
 17 31  1  0
 19 32  1  0
 20 33  1  0
 34 35  1  0
 35 36  2  0
 35 37  1  0
 35 38  1  0
 34 39  1  0
 34 40  1  0
 37 41  1  0
 38 42  1  0
  4 34  1  6
M  END
>  <attachment_point>  (367) 
21

>  <score>  (367) 
<NA>

$$$$
4djw
     RDKit          3D

 46 49  0  0  0  0  0  0  0  0999 V2000
   22.4950   11.8750   22.5810 C   0  0  0  0  0  0  0  0  0  0  0  0
   22.5380    9.4930   22.4640 N   0  0  0  0  0  0  0  0  0  0  0  0
   22.3600   13.0630   22.3480 O   0  0  0  0  0  0  0  0  0  0  0  0
   22.3390   10.6680   21.5610 C   0  0  2  0  0  0  0  0  0  0  0  0
   22.7860   11.3350   23.8120 N   0  0  0  0  0  0  0  0  0  0  0  0
   22.7800    9.9140   23.7010 C   0  0  0  0  0  0  0  0  0  0  0  0
   22.9970    9.1110   24.7490 N   0  0  0  0  0  0  0  0  0  0  0  0
   23.0220   12.1410   25.0180 C   0  0  0  0  0  0  0  0  0  0  0  0
   29.1260    9.8230   21.7090 N   0  0  0  0  0  0  0  0  0  0  0  0
   23.4880   10.6920   20.5300 C   0  0  0  0  0  0  0  0  0  0  0  0
   23.2110   10.7890   19.1730 C   0  0  0  0  0  0  0  0  0  0  0  0
   24.2350   10.8650   18.2430 C   0  0  0  0  0  0  0  0  0  0  0  0
   25.5500   10.8410   18.6560 C   0  0  0  0  0  0  0  0  0  0  0  0
   25.8710   10.7460   20.0070 C   0  0  0  0  0  0  0  0  0  0  0  0
   24.8260   10.6610   20.9430 C   0  0  0  0  0  0  0  0  0  0  0  0
   29.8540   10.9130   21.4510 C   0  0  0  0  0  0  0  0  0  0  0  0
   27.8830    9.7800   21.2080 C   0  0  0  0  0  0  0  0  0  0  0  0
   27.3000   10.8010   20.4650 C   0  0  0  0  0  0  0  0  0  0  0  0
   28.0930   11.9190   20.2200 C   0  0  0  0  0  0  0  0  0  0  0  0
   29.3850   11.9780   20.7130 C   0  0  0  0  0  0  0  0  0  0  0  0
    0.0000    0.0000    0.0000 H   0  0  0  0  0  0  0  0  0  0  0  0
    0.0000    0.0000    0.0000 H   0  0  0  0  0  0  0  0  0  0  0  0
    0.0000    0.0000    0.0000 H   0  0  0  0  0  0  0  0  0  0  0  0
    0.0000    0.0000    0.0000 H   0  0  0  0  0  0  0  0  0  0  0  0
    0.0000    0.0000    0.0000 H   0  0  0  0  0  0  0  0  0  0  0  0
    0.0000    0.0000    0.0000 H   0  0  0  0  0  0  0  0  0  0  0  0
    0.0000    0.0000    0.0000 H   0  0  0  0  0  0  0  0  0  0  0  0
    0.0000    0.0000    0.0000 H   0  0  0  0  0  0  0  0  0  0  0  0
    0.0000    0.0000    0.0000 H   0  0  0  0  0  0  0  0  0  0  0  0
    0.0000    0.0000    0.0000 H   0  0  0  0  0  0  0  0  0  0  0  0
    0.0000    0.0000    0.0000 H   0  0  0  0  0  0  0  0  0  0  0  0
    0.0000    0.0000    0.0000 H   0  0  0  0  0  0  0  0  0  0  0  0
    0.0000    0.0000    0.0000 H   0  0  0  0  0  0  0  0  0  0  0  0
   10.8208    5.1675   10.4439 C   0  0  0  0  0  0  0  0  0  0  0  0
   10.4372    6.0129    9.6489 O   0  0  0  0  0  0  0  0  0  0  0  0
   10.4622    3.7942   10.5943 C   0  0  0  0  0  0  0  0  0  0  0  0
    9.5382    3.1925    9.7688 C   0  0  0  0  0  0  0  0  0  0  0  0
    9.2036    1.8683    9.9267 C   0  0  0  0  0  0  0  0  0  0  0  0
    9.7730    1.0778   10.9149 C   0  0  0  0  0  0  0  0  0  0  0  0
    9.3317   -0.6143   11.1006 Cl  0  0  0  0  0  0  0  0  0  0  0  0
   10.6982    1.6823   11.7407 C   0  0  0  0  0  0  0  0  0  0  0  0
   11.0289    3.0098   11.5768 C   0  0  0  0  0  0  0  0  0  0  0  0
    9.1056    3.8257    9.0046 H   0  0  0  0  0  0  0  0  0  0  0  0
    8.4829    1.3937    9.2852 H   0  0  0  0  0  0  0  0  0  0  0  0
   11.1383    1.0533   12.5118 H   0  0  0  0  0  0  0  0  0  0  0  0
   11.7596    3.4207   12.2564 H   0  0  0  0  0  0  0  0  0  0  0  0
  1  3  2  0
  1  4  1  0
  2  4  1  0
  1  5  1  0
  2  6  1  0
  5  6  1  0
  6  7  2  3
  5  8  1  0
  4 10  1  0
 10 11  2  0
 11 12  1  0
 12 13  2  0
 13 14  1  0
 10 15  1  0
 14 15  2  0
  9 16  2  0
  9 17  1  0
 14 18  1  0
 17 18  2  0
 18 19  1  0
 16 20  1  0
 19 20  2  0
  2 21  1  0
  7 22  1  0
  8 23  1  0
  8 24  1  0
  8 25  1  0
 11 26  1  0
 12 27  1  0
 13 28  1  0
 15 29  1  0
 16 30  1  0
 17 31  1  0
 19 32  1  0
 20 33  1  0
 34 35  2  0
 34 36  1  0
 36 37  2  0
 37 38  1  0
 38 39  2  0
 39 40  1  0
 39 41  1  0
 41 42  2  0
 42 36  1  0
 37 43  1  0
 38 44  1  0
 41 45  1  0
 42 46  1  0
  4 34  1  6
M  END
>  <attachment_point>  (368) 
21

>  <score>  (368) 
<NA>

$$$$
4djw
     RDKit          3D

 47 49  0  0  0  0  0  0  0  0999 V2000
   22.4950   11.8750   22.5810 C   0  0  0  0  0  0  0  0  0  0  0  0
   22.5380    9.4930   22.4640 N   0  0  0  0  0  0  0  0  0  0  0  0
   22.3600   13.0630   22.3480 O   0  0  0  0  0  0  0  0  0  0  0  0
   22.3390   10.6680   21.5610 C   0  0  2  0  0  0  0  0  0  0  0  0
   22.7860   11.3350   23.8120 N   0  0  0  0  0  0  0  0  0  0  0  0
   22.7800    9.9140   23.7010 C   0  0  0  0  0  0  0  0  0  0  0  0
   22.9970    9.1110   24.7490 N   0  0  0  0  0  0  0  0  0  0  0  0
   23.0220   12.1410   25.0180 C   0  0  0  0  0  0  0  0  0  0  0  0
   29.1260    9.8230   21.7090 N   0  0  0  0  0  0  0  0  0  0  0  0
   23.4880   10.6920   20.5300 C   0  0  0  0  0  0  0  0  0  0  0  0
   23.2110   10.7890   19.1730 C   0  0  0  0  0  0  0  0  0  0  0  0
   24.2350   10.8650   18.2430 C   0  0  0  0  0  0  0  0  0  0  0  0
   25.5500   10.8410   18.6560 C   0  0  0  0  0  0  0  0  0  0  0  0
   25.8710   10.7460   20.0070 C   0  0  0  0  0  0  0  0  0  0  0  0
   24.8260   10.6610   20.9430 C   0  0  0  0  0  0  0  0  0  0  0  0
   29.8540   10.9130   21.4510 C   0  0  0  0  0  0  0  0  0  0  0  0
   27.8830    9.7800   21.2080 C   0  0  0  0  0  0  0  0  0  0  0  0
   27.3000   10.8010   20.4650 C   0  0  0  0  0  0  0  0  0  0  0  0
   28.0930   11.9190   20.2200 C   0  0  0  0  0  0  0  0  0  0  0  0
   29.3850   11.9780   20.7130 C   0  0  0  0  0  0  0  0  0  0  0  0
    0.0000    0.0000    0.0000 H   0  0  0  0  0  0  0  0  0  0  0  0
    0.0000    0.0000    0.0000 H   0  0  0  0  0  0  0  0  0  0  0  0
    0.0000    0.0000    0.0000 H   0  0  0  0  0  0  0  0  0  0  0  0
    0.0000    0.0000    0.0000 H   0  0  0  0  0  0  0  0  0  0  0  0
    0.0000    0.0000    0.0000 H   0  0  0  0  0  0  0  0  0  0  0  0
    0.0000    0.0000    0.0000 H   0  0  0  0  0  0  0  0  0  0  0  0
    0.0000    0.0000    0.0000 H   0  0  0  0  0  0  0  0  0  0  0  0
    0.0000    0.0000    0.0000 H   0  0  0  0  0  0  0  0  0  0  0  0
    0.0000    0.0000    0.0000 H   0  0  0  0  0  0  0  0  0  0  0  0
    0.0000    0.0000    0.0000 H   0  0  0  0  0  0  0  0  0  0  0  0
    0.0000    0.0000    0.0000 H   0  0  0  0  0  0  0  0  0  0  0  0
    0.0000    0.0000    0.0000 H   0  0  0  0  0  0  0  0  0  0  0  0
    0.0000    0.0000    0.0000 H   0  0  0  0  0  0  0  0  0  0  0  0
   10.8352    5.1743   10.4578 N   0  0  0  0  0  0  0  0  0  0  0  0
    9.7753    6.0011   10.1938 C   0  0  0  0  0  0  0  0  0  0  0  0
    9.7189    7.1262   10.7956 O   0  0  0  0  0  0  0  0  0  0  0  0
    8.6876    5.6427    9.2355 C   0  0  0  0  0  0  0  0  0  0  0  0
    8.0197    4.3553    9.7260 C   0  0  0  0  0  0  0  0  0  0  0  0
    9.1532    5.5475    7.8233 C   0  0  0  0  0  0  0  0  0  0  0  0
   11.0760    4.2892   10.1210 H   0  0  0  0  0  0  0  0  0  0  0  0
    7.9004    6.4182    9.2855 H   0  0  0  0  0  0  0  0  0  0  0  0
    7.0741    4.5661   10.2671 H   0  0  0  0  0  0  0  0  0  0  0  0
    8.6873    3.8549   10.4870 H   0  0  0  0  0  0  0  0  0  0  0  0
    7.8036    3.6646    8.8832 H   0  0  0  0  0  0  0  0  0  0  0  0
    8.9434    6.4718    7.2327 H   0  0  0  0  0  0  0  0  0  0  0  0
   10.2159    5.3168    7.6988 H   0  0  0  0  0  0  0  0  0  0  0  0
    8.5659    4.7412    7.3080 H   0  0  0  0  0  0  0  0  0  0  0  0
  1  3  2  0
  1  4  1  0
  2  4  1  0
  1  5  1  0
  2  6  1  0
  5  6  1  0
  6  7  2  3
  5  8  1  0
  4 10  1  0
 10 11  2  0
 11 12  1  0
 12 13  2  0
 13 14  1  0
 10 15  1  0
 14 15  2  0
  9 16  2  0
  9 17  1  0
 14 18  1  0
 17 18  2  0
 18 19  1  0
 16 20  1  0
 19 20  2  0
  2 21  1  0
  7 22  1  0
  8 23  1  0
  8 24  1  0
  8 25  1  0
 11 26  1  0
 12 27  1  0
 13 28  1  0
 15 29  1  0
 16 30  1  0
 17 31  1  0
 19 32  1  0
 20 33  1  0
 34 35  1  0
 35 36  2  0
 35 37  1  0
 37 38  1  0
 37 39  1  0
 34 40  1  0
 37 41  1  0
 38 42  1  0
 38 43  1  0
 38 44  1  0
 39 45  1  0
 39 46  1  0
 39 47  1  0
  4 34  1  6
M  END
>  <attachment_point>  (369) 
21

>  <score>  (369) 
<NA>

$$$$
4djw
     RDKit          3D

 46 49  0  0  0  0  0  0  0  0999 V2000
   22.4950   11.8750   22.5810 C   0  0  0  0  0  0  0  0  0  0  0  0
   22.5380    9.4930   22.4640 N   0  0  0  0  0  0  0  0  0  0  0  0
   22.3600   13.0630   22.3480 O   0  0  0  0  0  0  0  0  0  0  0  0
   22.3390   10.6680   21.5610 C   0  0  2  0  0  0  0  0  0  0  0  0
   22.7860   11.3350   23.8120 N   0  0  0  0  0  0  0  0  0  0  0  0
   22.7800    9.9140   23.7010 C   0  0  0  0  0  0  0  0  0  0  0  0
   22.9970    9.1110   24.7490 N   0  0  0  0  0  0  0  0  0  0  0  0
   23.0220   12.1410   25.0180 C   0  0  0  0  0  0  0  0  0  0  0  0
   29.1260    9.8230   21.7090 N   0  0  0  0  0  0  0  0  0  0  0  0
   23.4880   10.6920   20.5300 C   0  0  0  0  0  0  0  0  0  0  0  0
   23.2110   10.7890   19.1730 C   0  0  0  0  0  0  0  0  0  0  0  0
   24.2350   10.8650   18.2430 C   0  0  0  0  0  0  0  0  0  0  0  0
   25.5500   10.8410   18.6560 C   0  0  0  0  0  0  0  0  0  0  0  0
   25.8710   10.7460   20.0070 C   0  0  0  0  0  0  0  0  0  0  0  0
   24.8260   10.6610   20.9430 C   0  0  0  0  0  0  0  0  0  0  0  0
   29.8540   10.9130   21.4510 C   0  0  0  0  0  0  0  0  0  0  0  0
   27.8830    9.7800   21.2080 C   0  0  0  0  0  0  0  0  0  0  0  0
   27.3000   10.8010   20.4650 C   0  0  0  0  0  0  0  0  0  0  0  0
   28.0930   11.9190   20.2200 C   0  0  0  0  0  0  0  0  0  0  0  0
   29.3850   11.9780   20.7130 C   0  0  0  0  0  0  0  0  0  0  0  0
    0.0000    0.0000    0.0000 H   0  0  0  0  0  0  0  0  0  0  0  0
    0.0000    0.0000    0.0000 H   0  0  0  0  0  0  0  0  0  0  0  0
    0.0000    0.0000    0.0000 H   0  0  0  0  0  0  0  0  0  0  0  0
    0.0000    0.0000    0.0000 H   0  0  0  0  0  0  0  0  0  0  0  0
    0.0000    0.0000    0.0000 H   0  0  0  0  0  0  0  0  0  0  0  0
    0.0000    0.0000    0.0000 H   0  0  0  0  0  0  0  0  0  0  0  0
    0.0000    0.0000    0.0000 H   0  0  0  0  0  0  0  0  0  0  0  0
    0.0000    0.0000    0.0000 H   0  0  0  0  0  0  0  0  0  0  0  0
    0.0000    0.0000    0.0000 H   0  0  0  0  0  0  0  0  0  0  0  0
    0.0000    0.0000    0.0000 H   0  0  0  0  0  0  0  0  0  0  0  0
    0.0000    0.0000    0.0000 H   0  0  0  0  0  0  0  0  0  0  0  0
    0.0000    0.0000    0.0000 H   0  0  0  0  0  0  0  0  0  0  0  0
    0.0000    0.0000    0.0000 H   0  0  0  0  0  0  0  0  0  0  0  0
   10.8242    5.1691   10.4472 N   0  0  0  0  0  0  0  0  0  0  0  0
    9.6744    5.6764   11.2133 C   0  0  0  0  0  0  0  0  0  0  0  0
    9.7887    7.1911   11.3750 C   0  0  0  0  0  0  0  0  0  0  0  0
    8.7727    7.9528   12.0996 C   0  0  0  0  0  0  0  0  0  0  0  0
   10.1394    7.7340   12.7155 C   0  0  0  0  0  0  0  0  0  0  0  0
   11.0776    5.9218    9.7668 H   0  0  0  0  0  0  0  0  0  0  0  0
    9.6694    5.1739   12.2004 H   0  0  0  0  0  0  0  0  0  0  0  0
    8.7930    5.4168   10.6041 H   0  0  0  0  0  0  0  0  0  0  0  0
   10.2345    7.6805   10.4784 H   0  0  0  0  0  0  0  0  0  0  0  0
    8.5676    9.0092   11.7780 H   0  0  0  0  0  0  0  0  0  0  0  0
    7.8998    7.4597   12.5673 H   0  0  0  0  0  0  0  0  0  0  0  0
   10.8357    8.6107   12.7201 H   0  0  0  0  0  0  0  0  0  0  0  0
   10.2081    6.9986   13.5543 H   0  0  0  0  0  0  0  0  0  0  0  0
  1  3  2  0
  1  4  1  0
  2  4  1  0
  1  5  1  0
  2  6  1  0
  5  6  1  0
  6  7  2  3
  5  8  1  0
  4 10  1  0
 10 11  2  0
 11 12  1  0
 12 13  2  0
 13 14  1  0
 10 15  1  0
 14 15  2  0
  9 16  2  0
  9 17  1  0
 14 18  1  0
 17 18  2  0
 18 19  1  0
 16 20  1  0
 19 20  2  0
  2 21  1  0
  7 22  1  0
  8 23  1  0
  8 24  1  0
  8 25  1  0
 11 26  1  0
 12 27  1  0
 13 28  1  0
 15 29  1  0
 16 30  1  0
 17 31  1  0
 19 32  1  0
 20 33  1  0
 34 35  1  0
 35 36  1  0
 36 37  1  0
 37 38  1  0
 38 36  1  0
 34 39  1  0
 35 40  1  0
 35 41  1  0
 36 42  1  0
 37 43  1  0
 37 44  1  0
 38 45  1  0
 38 46  1  0
  4 34  1  6
M  END
>  <attachment_point>  (370) 
21

>  <score>  (370) 
<NA>

$$$$
4djw
     RDKit          3D

 44 47  0  0  0  0  0  0  0  0999 V2000
   22.4950   11.8750   22.5810 C   0  0  0  0  0  0  0  0  0  0  0  0
   22.5380    9.4930   22.4640 N   0  0  0  0  0  0  0  0  0  0  0  0
   22.3600   13.0630   22.3480 O   0  0  0  0  0  0  0  0  0  0  0  0
   22.3390   10.6680   21.5610 C   0  0  2  0  0  0  0  0  0  0  0  0
   22.7860   11.3350   23.8120 N   0  0  0  0  0  0  0  0  0  0  0  0
   22.7800    9.9140   23.7010 C   0  0  0  0  0  0  0  0  0  0  0  0
   22.9970    9.1110   24.7490 N   0  0  0  0  0  0  0  0  0  0  0  0
   23.0220   12.1410   25.0180 C   0  0  0  0  0  0  0  0  0  0  0  0
   29.1260    9.8230   21.7090 N   0  0  0  0  0  0  0  0  0  0  0  0
   23.4880   10.6920   20.5300 C   0  0  0  0  0  0  0  0  0  0  0  0
   23.2110   10.7890   19.1730 C   0  0  0  0  0  0  0  0  0  0  0  0
   24.2350   10.8650   18.2430 C   0  0  0  0  0  0  0  0  0  0  0  0
   25.5500   10.8410   18.6560 C   0  0  0  0  0  0  0  0  0  0  0  0
   25.8710   10.7460   20.0070 C   0  0  0  0  0  0  0  0  0  0  0  0
   24.8260   10.6610   20.9430 C   0  0  0  0  0  0  0  0  0  0  0  0
   29.8540   10.9130   21.4510 C   0  0  0  0  0  0  0  0  0  0  0  0
   27.8830    9.7800   21.2080 C   0  0  0  0  0  0  0  0  0  0  0  0
   27.3000   10.8010   20.4650 C   0  0  0  0  0  0  0  0  0  0  0  0
   28.0930   11.9190   20.2200 C   0  0  0  0  0  0  0  0  0  0  0  0
   29.3850   11.9780   20.7130 C   0  0  0  0  0  0  0  0  0  0  0  0
    0.0000    0.0000    0.0000 H   0  0  0  0  0  0  0  0  0  0  0  0
    0.0000    0.0000    0.0000 H   0  0  0  0  0  0  0  0  0  0  0  0
    0.0000    0.0000    0.0000 H   0  0  0  0  0  0  0  0  0  0  0  0
    0.0000    0.0000    0.0000 H   0  0  0  0  0  0  0  0  0  0  0  0
    0.0000    0.0000    0.0000 H   0  0  0  0  0  0  0  0  0  0  0  0
    0.0000    0.0000    0.0000 H   0  0  0  0  0  0  0  0  0  0  0  0
    0.0000    0.0000    0.0000 H   0  0  0  0  0  0  0  0  0  0  0  0
    0.0000    0.0000    0.0000 H   0  0  0  0  0  0  0  0  0  0  0  0
    0.0000    0.0000    0.0000 H   0  0  0  0  0  0  0  0  0  0  0  0
    0.0000    0.0000    0.0000 H   0  0  0  0  0  0  0  0  0  0  0  0
    0.0000    0.0000    0.0000 H   0  0  0  0  0  0  0  0  0  0  0  0
    0.0000    0.0000    0.0000 H   0  0  0  0  0  0  0  0  0  0  0  0
    0.0000    0.0000    0.0000 H   0  0  0  0  0  0  0  0  0  0  0  0
   10.8511    5.1820   10.4732 C   0  0  0  0  0  0  0  0  0  0  0  0
   11.1638    4.5672    9.2821 C   0  0  0  0  0  0  0  0  0  0  0  0
    9.9094    4.3049    8.7292 C   0  0  0  0  0  0  0  0  0  0  0  0
    8.9321    4.7388    9.5451 N   0  0  0  0  0  0  0  0  0  0  0  0
    7.4880    4.6486    9.3219 C   0  0  0  0  0  0  0  0  0  0  0  0
    9.5360    5.2674   10.5973 N   0  0  0  0  0  0  0  0  0  0  0  0
   12.1355    4.3368    8.8635 H   0  0  0  0  0  0  0  0  0  0  0  0
    9.7483    3.8162    7.7692 H   0  0  0  0  0  0  0  0  0  0  0  0
    7.1472    5.4408    8.6070 H   0  0  0  0  0  0  0  0  0  0  0  0
    6.9899    4.8580   10.2874 H   0  0  0  0  0  0  0  0  0  0  0  0
    7.2254    3.6460    8.9338 H   0  0  0  0  0  0  0  0  0  0  0  0
  1  3  2  0
  1  4  1  0
  2  4  1  0
  1  5  1  0
  2  6  1  0
  5  6  1  0
  6  7  2  3
  5  8  1  0
  4 10  1  6
 10 11  2  0
 11 12  1  0
 12 13  2  0
 13 14  1  0
 10 15  1  0
 14 15  2  0
  9 16  2  0
  9 17  1  0
 14 18  1  0
 17 18  2  0
 18 19  1  0
 16 20  1  0
 19 20  2  0
  2 21  1  0
  7 22  1  0
  8 23  1  0
  8 24  1  0
  8 25  1  0
 11 26  1  0
 12 27  1  0
 13 28  1  0
 15 29  1  0
 16 30  1  0
 17 31  1  0
 19 32  1  0
 20 33  1  0
 34 35  1  0
 35 36  2  0
 36 37  1  0
 37 38  1  0
 37 39  1  0
 39 34  2  0
 35 40  1  0
 36 41  1  0
 38 42  1  0
 38 43  1  0
 38 44  1  0
  4 34  1  0
M  END
>  <attachment_point>  (371) 
21

>  <score>  (371) 
<NA>

$$$$
4djw
     RDKit          3D

 54 57  0  0  0  0  0  0  0  0999 V2000
   22.4950   11.8750   22.5810 C   0  0  0  0  0  0  0  0  0  0  0  0
   22.5380    9.4930   22.4640 N   0  0  0  0  0  0  0  0  0  0  0  0
   22.3600   13.0630   22.3480 O   0  0  0  0  0  0  0  0  0  0  0  0
   22.3390   10.6680   21.5610 C   0  0  2  0  0  0  0  0  0  0  0  0
   22.7860   11.3350   23.8120 N   0  0  0  0  0  0  0  0  0  0  0  0
   22.7800    9.9140   23.7010 C   0  0  0  0  0  0  0  0  0  0  0  0
   22.9970    9.1110   24.7490 N   0  0  0  0  0  0  0  0  0  0  0  0
   23.0220   12.1410   25.0180 C   0  0  0  0  0  0  0  0  0  0  0  0
   29.1260    9.8230   21.7090 N   0  0  0  0  0  0  0  0  0  0  0  0
   23.4880   10.6920   20.5300 C   0  0  0  0  0  0  0  0  0  0  0  0
   23.2110   10.7890   19.1730 C   0  0  0  0  0  0  0  0  0  0  0  0
   24.2350   10.8650   18.2430 C   0  0  0  0  0  0  0  0  0  0  0  0
   25.5500   10.8410   18.6560 C   0  0  0  0  0  0  0  0  0  0  0  0
   25.8710   10.7460   20.0070 C   0  0  0  0  0  0  0  0  0  0  0  0
   24.8260   10.6610   20.9430 C   0  0  0  0  0  0  0  0  0  0  0  0
   29.8540   10.9130   21.4510 C   0  0  0  0  0  0  0  0  0  0  0  0
   27.8830    9.7800   21.2080 C   0  0  0  0  0  0  0  0  0  0  0  0
   27.3000   10.8010   20.4650 C   0  0  0  0  0  0  0  0  0  0  0  0
   28.0930   11.9190   20.2200 C   0  0  0  0  0  0  0  0  0  0  0  0
   29.3850   11.9780   20.7130 C   0  0  0  0  0  0  0  0  0  0  0  0
    0.0000    0.0000    0.0000 H   0  0  0  0  0  0  0  0  0  0  0  0
    0.0000    0.0000    0.0000 H   0  0  0  0  0  0  0  0  0  0  0  0
    0.0000    0.0000    0.0000 H   0  0  0  0  0  0  0  0  0  0  0  0
    0.0000    0.0000    0.0000 H   0  0  0  0  0  0  0  0  0  0  0  0
    0.0000    0.0000    0.0000 H   0  0  0  0  0  0  0  0  0  0  0  0
    0.0000    0.0000    0.0000 H   0  0  0  0  0  0  0  0  0  0  0  0
    0.0000    0.0000    0.0000 H   0  0  0  0  0  0  0  0  0  0  0  0
    0.0000    0.0000    0.0000 H   0  0  0  0  0  0  0  0  0  0  0  0
    0.0000    0.0000    0.0000 H   0  0  0  0  0  0  0  0  0  0  0  0
    0.0000    0.0000    0.0000 H   0  0  0  0  0  0  0  0  0  0  0  0
    0.0000    0.0000    0.0000 H   0  0  0  0  0  0  0  0  0  0  0  0
    0.0000    0.0000    0.0000 H   0  0  0  0  0  0  0  0  0  0  0  0
    0.0000    0.0000    0.0000 H   0  0  0  0  0  0  0  0  0  0  0  0
   10.9151    5.2125   10.5349 N   0  0  0  0  0  0  0  0  0  0  0  0
    9.9537    6.2297   10.0872 C   0  0  0  0  0  0  0  0  0  0  0  0
   10.6431    7.0449    9.0445 C   0  0  0  0  0  0  0  0  0  0  0  0
   11.8391    6.1933    8.6772 C   0  0  1  0  0  0  0  0  0  0  0  0
   13.0478    6.8039    9.1211 N   0  0  0  0  0  0  0  0  0  0  0  0
   13.1226    7.0105   10.5415 C   0  0  0  0  0  0  0  0  0  0  0  0
   14.1885    5.9933    8.7348 C   0  0  0  0  0  0  0  0  0  0  0  0
   11.5494    4.8592    9.2883 C   0  0  0  0  0  0  0  0  0  0  0  0
    9.0639    5.6837    9.6893 H   0  0  0  0  0  0  0  0  0  0  0  0
    9.6184    6.8249   10.9495 H   0  0  0  0  0  0  0  0  0  0  0  0
    9.9531    7.1194    8.1665 H   0  0  0  0  0  0  0  0  0  0  0  0
   10.9388    8.0566    9.4016 H   0  0  0  0  0  0  0  0  0  0  0  0
   11.8764    6.0958    7.5818 H   0  0  0  0  0  0  0  0  0  0  0  0
   13.1336    6.0630   11.0977 H   0  0  0  0  0  0  0  0  0  0  0  0
   14.1346    7.4802   10.7278 H   0  0  0  0  0  0  0  0  0  0  0  0
   12.3502    7.7098   10.9232 H   0  0  0  0  0  0  0  0  0  0  0  0
   14.1351    5.6652    7.6758 H   0  0  0  0  0  0  0  0  0  0  0  0
   14.2185    5.0998    9.3985 H   0  0  0  0  0  0  0  0  0  0  0  0
   15.0915    6.6021    8.9542 H   0  0  0  0  0  0  0  0  0  0  0  0
   12.3942    4.1875    9.3759 H   0  0  0  0  0  0  0  0  0  0  0  0
   10.7784    4.3395    8.6637 H   0  0  0  0  0  0  0  0  0  0  0  0
  1  3  2  0
  1  4  1  0
  2  4  1  0
  1  5  1  0
  2  6  1  0
  5  6  1  0
  6  7  2  3
  5  8  1  0
  4 10  1  0
 10 11  2  0
 11 12  1  0
 12 13  2  0
 13 14  1  0
 10 15  1  0
 14 15  2  0
  9 16  2  0
  9 17  1  0
 14 18  1  0
 17 18  2  0
 18 19  1  0
 16 20  1  0
 19 20  2  0
  2 21  1  0
  7 22  1  0
  8 23  1  0
  8 24  1  0
  8 25  1  0
 11 26  1  0
 12 27  1  0
 13 28  1  0
 15 29  1  0
 16 30  1  0
 17 31  1  0
 19 32  1  0
 20 33  1  0
 34 35  1  0
 35 36  1  0
 36 37  1  0
 37 38  1  0
 38 39  1  0
 38 40  1  0
 37 41  1  0
 41 34  1  0
 35 42  1  0
 35 43  1  0
 36 44  1  0
 36 45  1  0
 37 46  1  6
 39 47  1  0
 39 48  1  0
 39 49  1  0
 40 50  1  0
 40 51  1  0
 40 52  1  0
 41 53  1  0
 41 54  1  0
  4 34  1  6
M  END
>  <attachment_point>  (372) 
21

>  <score>  (372) 
<NA>

$$$$
4djw
     RDKit          3D

 53 57  0  0  0  0  0  0  0  0999 V2000
   22.4950   11.8750   22.5810 C   0  0  0  0  0  0  0  0  0  0  0  0
   22.5380    9.4930   22.4640 N   0  0  0  0  0  0  0  0  0  0  0  0
   22.3600   13.0630   22.3480 O   0  0  0  0  0  0  0  0  0  0  0  0
   22.3390   10.6680   21.5610 C   0  0  2  0  0  0  0  0  0  0  0  0
   22.7860   11.3350   23.8120 N   0  0  0  0  0  0  0  0  0  0  0  0
   22.7800    9.9140   23.7010 C   0  0  0  0  0  0  0  0  0  0  0  0
   22.9970    9.1110   24.7490 N   0  0  0  0  0  0  0  0  0  0  0  0
   23.0220   12.1410   25.0180 C   0  0  0  0  0  0  0  0  0  0  0  0
   29.1260    9.8230   21.7090 N   0  0  0  0  0  0  0  0  0  0  0  0
   23.4880   10.6920   20.5300 C   0  0  0  0  0  0  0  0  0  0  0  0
   23.2110   10.7890   19.1730 C   0  0  0  0  0  0  0  0  0  0  0  0
   24.2350   10.8650   18.2430 C   0  0  0  0  0  0  0  0  0  0  0  0
   25.5500   10.8410   18.6560 C   0  0  0  0  0  0  0  0  0  0  0  0
   25.8710   10.7460   20.0070 C   0  0  0  0  0  0  0  0  0  0  0  0
   24.8260   10.6610   20.9430 C   0  0  0  0  0  0  0  0  0  0  0  0
   29.8540   10.9130   21.4510 C   0  0  0  0  0  0  0  0  0  0  0  0
   27.8830    9.7800   21.2080 C   0  0  0  0  0  0  0  0  0  0  0  0
   27.3000   10.8010   20.4650 C   0  0  0  0  0  0  0  0  0  0  0  0
   28.0930   11.9190   20.2200 C   0  0  0  0  0  0  0  0  0  0  0  0
   29.3850   11.9780   20.7130 C   0  0  0  0  0  0  0  0  0  0  0  0
    0.0000    0.0000    0.0000 H   0  0  0  0  0  0  0  0  0  0  0  0
    0.0000    0.0000    0.0000 H   0  0  0  0  0  0  0  0  0  0  0  0
    0.0000    0.0000    0.0000 H   0  0  0  0  0  0  0  0  0  0  0  0
    0.0000    0.0000    0.0000 H   0  0  0  0  0  0  0  0  0  0  0  0
    0.0000    0.0000    0.0000 H   0  0  0  0  0  0  0  0  0  0  0  0
    0.0000    0.0000    0.0000 H   0  0  0  0  0  0  0  0  0  0  0  0
    0.0000    0.0000    0.0000 H   0  0  0  0  0  0  0  0  0  0  0  0
    0.0000    0.0000    0.0000 H   0  0  0  0  0  0  0  0  0  0  0  0
    0.0000    0.0000    0.0000 H   0  0  0  0  0  0  0  0  0  0  0  0
    0.0000    0.0000    0.0000 H   0  0  0  0  0  0  0  0  0  0  0  0
    0.0000    0.0000    0.0000 H   0  0  0  0  0  0  0  0  0  0  0  0
    0.0000    0.0000    0.0000 H   0  0  0  0  0  0  0  0  0  0  0  0
    0.0000    0.0000    0.0000 H   0  0  0  0  0  0  0  0  0  0  0  0
   10.9331    5.2211   10.5523 N   0  0  0  0  0  0  0  0  0  0  0  0
   10.3448    6.1711    9.6737 C   0  0  0  0  0  0  0  0  0  0  0  0
    9.6184    5.5963    8.5002 C   0  0  0  0  0  0  0  0  0  0  0  0
   10.4371    4.4912    7.9255 C   0  0  0  0  0  0  0  0  0  0  0  0
   10.6533    4.3457    6.5643 C   0  0  0  0  0  0  0  0  0  0  0  0
   11.4331    3.2789    6.1245 C   0  0  0  0  0  0  0  0  0  0  0  0
   11.9808    2.3844    7.0180 C   0  0  0  0  0  0  0  0  0  0  0  0
   11.7475    2.5560    8.3665 C   0  0  0  0  0  0  0  0  0  0  0  0
   10.9774    3.6052    8.8350 C   0  0  0  0  0  0  0  0  0  0  0  0
   10.6897    3.8454   10.2708 C   0  0  0  0  0  0  0  0  0  0  0  0
    9.6578    6.8847   10.2155 H   0  0  0  0  0  0  0  0  0  0  0  0
   11.1809    6.8051    9.2584 H   0  0  0  0  0  0  0  0  0  0  0  0
    8.6299    5.1905    8.8555 H   0  0  0  0  0  0  0  0  0  0  0  0
    9.3916    6.3162    7.7177 H   0  0  0  0  0  0  0  0  0  0  0  0
   10.2152    5.0579    5.8761 H   0  0  0  0  0  0  0  0  0  0  0  0
   11.6067    3.1597    5.0518 H   0  0  0  0  0  0  0  0  0  0  0  0
   12.5869    1.5519    6.7050 H   0  0  0  0  0  0  0  0  0  0  0  0
   12.1582    1.8743    9.1258 H   0  0  0  0  0  0  0  0  0  0  0  0
    9.6685    3.4972   10.5537 H   0  0  0  0  0  0  0  0  0  0  0  0
   11.4483    3.2444   10.8396 H   0  0  0  0  0  0  0  0  0  0  0  0
  1  3  2  0
  1  4  1  0
  2  4  1  0
  1  5  1  0
  2  6  1  0
  5  6  1  0
  6  7  2  3
  5  8  1  0
  4 10  1  0
 10 11  2  0
 11 12  1  0
 12 13  2  0
 13 14  1  0
 10 15  1  0
 14 15  2  0
  9 16  2  0
  9 17  1  0
 14 18  1  0
 17 18  2  0
 18 19  1  0
 16 20  1  0
 19 20  2  0
  2 21  1  0
  7 22  1  0
  8 23  1  0
  8 24  1  0
  8 25  1  0
 11 26  1  0
 12 27  1  0
 13 28  1  0
 15 29  1  0
 16 30  1  0
 17 31  1  0
 19 32  1  0
 20 33  1  0
 34 35  1  0
 35 36  1  0
 36 37  1  0
 37 38  2  0
 38 39  1  0
 39 40  2  0
 40 41  1  0
 41 42  2  0
 42 43  1  0
 43 34  1  0
 42 37  1  0
 35 44  1  0
 35 45  1  0
 36 46  1  0
 36 47  1  0
 38 48  1  0
 39 49  1  0
 40 50  1  0
 41 51  1  0
 43 52  1  0
 43 53  1  0
  4 34  1  6
M  END
>  <attachment_point>  (373) 
21

>  <score>  (373) 
<NA>

$$$$
4djw
     RDKit          3D

 44 47  0  0  0  0  0  0  0  0999 V2000
   22.4950   11.8750   22.5810 C   0  0  0  0  0  0  0  0  0  0  0  0
   22.5380    9.4930   22.4640 N   0  0  0  0  0  0  0  0  0  0  0  0
   22.3600   13.0630   22.3480 O   0  0  0  0  0  0  0  0  0  0  0  0
   22.3390   10.6680   21.5610 C   0  0  2  0  0  0  0  0  0  0  0  0
   22.7860   11.3350   23.8120 N   0  0  0  0  0  0  0  0  0  0  0  0
   22.7800    9.9140   23.7010 C   0  0  0  0  0  0  0  0  0  0  0  0
   22.9970    9.1110   24.7490 N   0  0  0  0  0  0  0  0  0  0  0  0
   23.0220   12.1410   25.0180 C   0  0  0  0  0  0  0  0  0  0  0  0
   29.1260    9.8230   21.7090 N   0  0  0  0  0  0  0  0  0  0  0  0
   23.4880   10.6920   20.5300 C   0  0  0  0  0  0  0  0  0  0  0  0
   23.2110   10.7890   19.1730 C   0  0  0  0  0  0  0  0  0  0  0  0
   24.2350   10.8650   18.2430 C   0  0  0  0  0  0  0  0  0  0  0  0
   25.5500   10.8410   18.6560 C   0  0  0  0  0  0  0  0  0  0  0  0
   25.8710   10.7460   20.0070 C   0  0  0  0  0  0  0  0  0  0  0  0
   24.8260   10.6610   20.9430 C   0  0  0  0  0  0  0  0  0  0  0  0
   29.8540   10.9130   21.4510 C   0  0  0  0  0  0  0  0  0  0  0  0
   27.8830    9.7800   21.2080 C   0  0  0  0  0  0  0  0  0  0  0  0
   27.3000   10.8010   20.4650 C   0  0  0  0  0  0  0  0  0  0  0  0
   28.0930   11.9190   20.2200 C   0  0  0  0  0  0  0  0  0  0  0  0
   29.3850   11.9780   20.7130 C   0  0  0  0  0  0  0  0  0  0  0  0
    0.0000    0.0000    0.0000 H   0  0  0  0  0  0  0  0  0  0  0  0
    0.0000    0.0000    0.0000 H   0  0  0  0  0  0  0  0  0  0  0  0
    0.0000    0.0000    0.0000 H   0  0  0  0  0  0  0  0  0  0  0  0
    0.0000    0.0000    0.0000 H   0  0  0  0  0  0  0  0  0  0  0  0
    0.0000    0.0000    0.0000 H   0  0  0  0  0  0  0  0  0  0  0  0
    0.0000    0.0000    0.0000 H   0  0  0  0  0  0  0  0  0  0  0  0
    0.0000    0.0000    0.0000 H   0  0  0  0  0  0  0  0  0  0  0  0
    0.0000    0.0000    0.0000 H   0  0  0  0  0  0  0  0  0  0  0  0
    0.0000    0.0000    0.0000 H   0  0  0  0  0  0  0  0  0  0  0  0
    0.0000    0.0000    0.0000 H   0  0  0  0  0  0  0  0  0  0  0  0
    0.0000    0.0000    0.0000 H   0  0  0  0  0  0  0  0  0  0  0  0
    0.0000    0.0000    0.0000 H   0  0  0  0  0  0  0  0  0  0  0  0
    0.0000    0.0000    0.0000 H   0  0  0  0  0  0  0  0  0  0  0  0
   10.9005    5.2056   10.5209 C   0  0  2  0  0  0  0  0  0  0  0  0
   10.2675    3.8617   10.9180 C   0  0  0  0  0  0  0  0  0  0  0  0
   10.9910    2.9899   10.0837 O   0  0  0  0  0  0  0  0  0  0  0  0
   11.3778    3.6476    8.9327 C   0  0  0  0  0  0  0  0  0  0  0  0
   11.7699    3.0360    7.6739 N   0  0  0  0  0  0  0  0  0  0  0  0
   11.3292    4.9084    9.1738 N   0  0  0  0  0  0  0  0  0  0  0  0
   10.0624    5.9527   10.4186 H   0  0  0  0  0  0  0  0  0  0  0  0
    9.2202    3.8564   10.5811 H   0  0  0  0  0  0  0  0  0  0  0  0
   10.4030    3.6589   11.9912 H   0  0  0  0  0  0  0  0  0  0  0  0
   12.3746    2.1872    7.6850 H   0  0  0  0  0  0  0  0  0  0  0  0
   11.4757    3.4050    6.7527 H   0  0  0  0  0  0  0  0  0  0  0  0
  1  3  2  0
  1  4  1  0
  2  4  1  0
  1  5  1  0
  2  6  1  0
  5  6  1  0
  6  7  2  3
  5  8  1  0
  4 10  1  6
 10 11  2  0
 11 12  1  0
 12 13  2  0
 13 14  1  0
 10 15  1  0
 14 15  2  0
  9 16  2  0
  9 17  1  0
 14 18  1  0
 17 18  2  0
 18 19  1  0
 16 20  1  0
 19 20  2  0
  2 21  1  0
  7 22  1  0
  8 23  1  0
  8 24  1  0
  8 25  1  0
 11 26  1  0
 12 27  1  0
 13 28  1  0
 15 29  1  0
 16 30  1  0
 17 31  1  0
 19 32  1  0
 20 33  1  0
 34 35  1  0
 35 36  1  0
 36 37  1  0
 37 38  1  0
 37 39  2  0
 39 34  1  0
 34 40  1  1
 35 41  1  0
 35 42  1  0
 38 43  1  0
 38 44  1  0
  4 34  1  0
M  END
>  <attachment_point>  (374) 
21

>  <score>  (374) 
<NA>

$$$$
4djw
     RDKit          3D

 57 61  0  0  0  0  0  0  0  0999 V2000
   22.4950   11.8750   22.5810 C   0  0  0  0  0  0  0  0  0  0  0  0
   22.5380    9.4930   22.4640 N   0  0  0  0  0  0  0  0  0  0  0  0
   22.3600   13.0630   22.3480 O   0  0  0  0  0  0  0  0  0  0  0  0
   22.3390   10.6680   21.5610 C   0  0  2  0  0  0  0  0  0  0  0  0
   22.7860   11.3350   23.8120 N   0  0  0  0  0  0  0  0  0  0  0  0
   22.7800    9.9140   23.7010 C   0  0  0  0  0  0  0  0  0  0  0  0
   22.9970    9.1110   24.7490 N   0  0  0  0  0  0  0  0  0  0  0  0
   23.0220   12.1410   25.0180 C   0  0  0  0  0  0  0  0  0  0  0  0
   29.1260    9.8230   21.7090 N   0  0  0  0  0  0  0  0  0  0  0  0
   23.4880   10.6920   20.5300 C   0  0  0  0  0  0  0  0  0  0  0  0
   23.2110   10.7890   19.1730 C   0  0  0  0  0  0  0  0  0  0  0  0
   24.2350   10.8650   18.2430 C   0  0  0  0  0  0  0  0  0  0  0  0
   25.5500   10.8410   18.6560 C   0  0  0  0  0  0  0  0  0  0  0  0
   25.8710   10.7460   20.0070 C   0  0  0  0  0  0  0  0  0  0  0  0
   24.8260   10.6610   20.9430 C   0  0  0  0  0  0  0  0  0  0  0  0
   29.8540   10.9130   21.4510 C   0  0  0  0  0  0  0  0  0  0  0  0
   27.8830    9.7800   21.2080 C   0  0  0  0  0  0  0  0  0  0  0  0
   27.3000   10.8010   20.4650 C   0  0  0  0  0  0  0  0  0  0  0  0
   28.0930   11.9190   20.2200 C   0  0  0  0  0  0  0  0  0  0  0  0
   29.3850   11.9780   20.7130 C   0  0  0  0  0  0  0  0  0  0  0  0
    0.0000    0.0000    0.0000 H   0  0  0  0  0  0  0  0  0  0  0  0
    0.0000    0.0000    0.0000 H   0  0  0  0  0  0  0  0  0  0  0  0
    0.0000    0.0000    0.0000 H   0  0  0  0  0  0  0  0  0  0  0  0
    0.0000    0.0000    0.0000 H   0  0  0  0  0  0  0  0  0  0  0  0
    0.0000    0.0000    0.0000 H   0  0  0  0  0  0  0  0  0  0  0  0
    0.0000    0.0000    0.0000 H   0  0  0  0  0  0  0  0  0  0  0  0
    0.0000    0.0000    0.0000 H   0  0  0  0  0  0  0  0  0  0  0  0
    0.0000    0.0000    0.0000 H   0  0  0  0  0  0  0  0  0  0  0  0
    0.0000    0.0000    0.0000 H   0  0  0  0  0  0  0  0  0  0  0  0
    0.0000    0.0000    0.0000 H   0  0  0  0  0  0  0  0  0  0  0  0
    0.0000    0.0000    0.0000 H   0  0  0  0  0  0  0  0  0  0  0  0
    0.0000    0.0000    0.0000 H   0  0  0  0  0  0  0  0  0  0  0  0
    0.0000    0.0000    0.0000 H   0  0  0  0  0  0  0  0  0  0  0  0
   10.8555    5.1840   10.4774 C   0  0  0  0  0  0  0  0  0  0  0  0
    9.7884    5.9687   10.1706 C   0  0  0  0  0  0  0  0  0  0  0  0
    8.8448    5.4991    9.2492 C   0  0  0  0  0  0  0  0  0  0  0  0
    8.9918    4.2719    8.6662 C   0  0  0  0  0  0  0  0  0  0  0  0
    8.0527    3.7748    7.7344 N   0  0  0  0  0  0  0  0  0  0  0  0
    6.8936    4.5956    7.4347 C   0  0  0  0  0  0  0  0  0  0  0  0
    5.8545    3.7293    6.8057 C   0  0  0  0  0  0  0  0  0  0  0  0
    6.3888    3.0278    5.7309 O   0  0  0  0  0  0  0  0  0  0  0  0
    7.3008    2.0739    6.1016 C   0  0  0  0  0  0  0  0  0  0  0  0
    8.2863    2.4910    7.1297 C   0  0  0  0  0  0  0  0  0  0  0  0
   10.0808    3.5033    8.9973 C   0  0  0  0  0  0  0  0  0  0  0  0
   11.0307    3.9575    9.9144 C   0  0  0  0  0  0  0  0  0  0  0  0
    9.6800    6.9435   10.6396 H   0  0  0  0  0  0  0  0  0  0  0  0
    8.0026    6.1444    9.0209 H   0  0  0  0  0  0  0  0  0  0  0  0
    7.1728    5.4454    6.7884 H   0  0  0  0  0  0  0  0  0  0  0  0
    6.4602    4.9708    8.4036 H   0  0  0  0  0  0  0  0  0  0  0  0
    5.0654    4.3983    6.3836 H   0  0  0  0  0  0  0  0  0  0  0  0
    5.3772    3.0677    7.5504 H   0  0  0  0  0  0  0  0  0  0  0  0
    7.8797    1.8022    5.1700 H   0  0  0  0  0  0  0  0  0  0  0  0
    6.8132    1.1031    6.3991 H   0  0  0  0  0  0  0  0  0  0  0  0
    8.3194    1.7433    7.9537 H   0  0  0  0  0  0  0  0  0  0  0  0
    9.3409    2.5272    6.7257 H   0  0  0  0  0  0  0  0  0  0  0  0
   10.2257    2.5377    8.5594 H   0  0  0  0  0  0  0  0  0  0  0  0
   11.8868    3.3530   10.1745 H   0  0  0  0  0  0  0  0  0  0  0  0
  1  3  2  0
  1  4  1  0
  2  4  1  0
  1  5  1  0
  2  6  1  0
  5  6  1  0
  6  7  2  3
  5  8  1  0
  4 10  1  6
 10 11  2  0
 11 12  1  0
 12 13  2  0
 13 14  1  0
 10 15  1  0
 14 15  2  0
  9 16  2  0
  9 17  1  0
 14 18  1  0
 17 18  2  0
 18 19  1  0
 16 20  1  0
 19 20  2  0
  2 21  1  0
  7 22  1  0
  8 23  1  0
  8 24  1  0
  8 25  1  0
 11 26  1  0
 12 27  1  0
 13 28  1  0
 15 29  1  0
 16 30  1  0
 17 31  1  0
 19 32  1  0
 20 33  1  0
 34 35  2  0
 35 36  1  0
 36 37  2  0
 37 38  1  0
 38 39  1  0
 39 40  1  0
 40 41  1  0
 41 42  1  0
 42 43  1  0
 37 44  1  0
 44 45  2  0
 45 34  1  0
 43 38  1  0
 35 46  1  0
 36 47  1  0
 39 48  1  0
 39 49  1  0
 40 50  1  0
 40 51  1  0
 42 52  1  0
 42 53  1  0
 43 54  1  0
 43 55  1  0
 44 56  1  0
 45 57  1  0
  4 34  1  0
M  END
>  <attachment_point>  (375) 
21

>  <score>  (375) 
<NA>

$$$$
4djw
     RDKit          3D

 43 46  0  0  0  0  0  0  0  0999 V2000
   22.4950   11.8750   22.5810 C   0  0  0  0  0  0  0  0  0  0  0  0
   22.5380    9.4930   22.4640 N   0  0  0  0  0  0  0  0  0  0  0  0
   22.3600   13.0630   22.3480 O   0  0  0  0  0  0  0  0  0  0  0  0
   22.3390   10.6680   21.5610 C   0  0  2  0  0  0  0  0  0  0  0  0
   22.7860   11.3350   23.8120 N   0  0  0  0  0  0  0  0  0  0  0  0
   22.7800    9.9140   23.7010 C   0  0  0  0  0  0  0  0  0  0  0  0
   22.9970    9.1110   24.7490 N   0  0  0  0  0  0  0  0  0  0  0  0
   23.0220   12.1410   25.0180 C   0  0  0  0  0  0  0  0  0  0  0  0
   29.1260    9.8230   21.7090 N   0  0  0  0  0  0  0  0  0  0  0  0
   23.4880   10.6920   20.5300 C   0  0  0  0  0  0  0  0  0  0  0  0
   23.2110   10.7890   19.1730 C   0  0  0  0  0  0  0  0  0  0  0  0
   24.2350   10.8650   18.2430 C   0  0  0  0  0  0  0  0  0  0  0  0
   25.5500   10.8410   18.6560 C   0  0  0  0  0  0  0  0  0  0  0  0
   25.8710   10.7460   20.0070 C   0  0  0  0  0  0  0  0  0  0  0  0
   24.8260   10.6610   20.9430 C   0  0  0  0  0  0  0  0  0  0  0  0
   29.8540   10.9130   21.4510 C   0  0  0  0  0  0  0  0  0  0  0  0
   27.8830    9.7800   21.2080 C   0  0  0  0  0  0  0  0  0  0  0  0
   27.3000   10.8010   20.4650 C   0  0  0  0  0  0  0  0  0  0  0  0
   28.0930   11.9190   20.2200 C   0  0  0  0  0  0  0  0  0  0  0  0
   29.3850   11.9780   20.7130 C   0  0  0  0  0  0  0  0  0  0  0  0
    0.0000    0.0000    0.0000 H   0  0  0  0  0  0  0  0  0  0  0  0
    0.0000    0.0000    0.0000 H   0  0  0  0  0  0  0  0  0  0  0  0
    0.0000    0.0000    0.0000 H   0  0  0  0  0  0  0  0  0  0  0  0
    0.0000    0.0000    0.0000 H   0  0  0  0  0  0  0  0  0  0  0  0
    0.0000    0.0000    0.0000 H   0  0  0  0  0  0  0  0  0  0  0  0
    0.0000    0.0000    0.0000 H   0  0  0  0  0  0  0  0  0  0  0  0
    0.0000    0.0000    0.0000 H   0  0  0  0  0  0  0  0  0  0  0  0
    0.0000    0.0000    0.0000 H   0  0  0  0  0  0  0  0  0  0  0  0
    0.0000    0.0000    0.0000 H   0  0  0  0  0  0  0  0  0  0  0  0
    0.0000    0.0000    0.0000 H   0  0  0  0  0  0  0  0  0  0  0  0
    0.0000    0.0000    0.0000 H   0  0  0  0  0  0  0  0  0  0  0  0
    0.0000    0.0000    0.0000 H   0  0  0  0  0  0  0  0  0  0  0  0
    0.0000    0.0000    0.0000 H   0  0  0  0  0  0  0  0  0  0  0  0
   10.8701    5.1910   10.4915 C   0  0  0  0  0  0  0  0  0  0  0  0
    9.6025    5.3446   10.6261 N   0  0  0  0  0  0  0  0  0  0  0  0
    8.9028    4.7621    9.5055 C   0  0  0  0  0  0  0  0  0  0  0  0
    9.9410    3.8488    8.8976 C   0  0  0  0  0  0  0  0  0  0  0  0
   11.1710    4.4998    9.2936 N   0  0  0  0  0  0  0  0  0  0  0  0
    7.9803    4.2255    9.7942 H   0  0  0  0  0  0  0  0  0  0  0  0
    8.7192    5.5782    8.7774 H   0  0  0  0  0  0  0  0  0  0  0  0
    9.9537    2.8402    9.3762 H   0  0  0  0  0  0  0  0  0  0  0  0
    9.8328    3.7787    7.7904 H   0  0  0  0  0  0  0  0  0  0  0  0
   12.0946    4.4921    8.8353 H   0  0  0  0  0  0  0  0  0  0  0  0
  1  3  2  0
  1  4  1  0
  2  4  1  0
  1  5  1  0
  2  6  1  0
  5  6  1  0
  6  7  2  3
  5  8  1  0
  4 10  1  6
 10 11  2  0
 11 12  1  0
 12 13  2  0
 13 14  1  0
 10 15  1  0
 14 15  2  0
  9 16  2  0
  9 17  1  0
 14 18  1  0
 17 18  2  0
 18 19  1  0
 16 20  1  0
 19 20  2  0
  2 21  1  0
  7 22  1  0
  8 23  1  0
  8 24  1  0
  8 25  1  0
 11 26  1  0
 12 27  1  0
 13 28  1  0
 15 29  1  0
 16 30  1  0
 17 31  1  0
 19 32  1  0
 20 33  1  0
 34 35  2  0
 35 36  1  0
 36 37  1  0
 37 38  1  0
 38 34  1  0
 36 39  1  0
 36 40  1  0
 37 41  1  0
 37 42  1  0
 38 43  1  0
  4 34  1  0
M  END
>  <attachment_point>  (376) 
21

>  <score>  (376) 
<NA>

$$$$
4djw
     RDKit          3D

 46 48  0  0  0  0  0  0  0  0999 V2000
   22.4950   11.8750   22.5810 C   0  0  0  0  0  0  0  0  0  0  0  0
   22.5380    9.4930   22.4640 N   0  0  0  0  0  0  0  0  0  0  0  0
   22.3600   13.0630   22.3480 O   0  0  0  0  0  0  0  0  0  0  0  0
   22.3390   10.6680   21.5610 C   0  0  2  0  0  0  0  0  0  0  0  0
   22.7860   11.3350   23.8120 N   0  0  0  0  0  0  0  0  0  0  0  0
   22.7800    9.9140   23.7010 C   0  0  0  0  0  0  0  0  0  0  0  0
   22.9970    9.1110   24.7490 N   0  0  0  0  0  0  0  0  0  0  0  0
   23.0220   12.1410   25.0180 C   0  0  0  0  0  0  0  0  0  0  0  0
   29.1260    9.8230   21.7090 N   0  0  0  0  0  0  0  0  0  0  0  0
   23.4880   10.6920   20.5300 C   0  0  0  0  0  0  0  0  0  0  0  0
   23.2110   10.7890   19.1730 C   0  0  0  0  0  0  0  0  0  0  0  0
   24.2350   10.8650   18.2430 C   0  0  0  0  0  0  0  0  0  0  0  0
   25.5500   10.8410   18.6560 C   0  0  0  0  0  0  0  0  0  0  0  0
   25.8710   10.7460   20.0070 C   0  0  0  0  0  0  0  0  0  0  0  0
   24.8260   10.6610   20.9430 C   0  0  0  0  0  0  0  0  0  0  0  0
   29.8540   10.9130   21.4510 C   0  0  0  0  0  0  0  0  0  0  0  0
   27.8830    9.7800   21.2080 C   0  0  0  0  0  0  0  0  0  0  0  0
   27.3000   10.8010   20.4650 C   0  0  0  0  0  0  0  0  0  0  0  0
   28.0930   11.9190   20.2200 C   0  0  0  0  0  0  0  0  0  0  0  0
   29.3850   11.9780   20.7130 C   0  0  0  0  0  0  0  0  0  0  0  0
    0.0000    0.0000    0.0000 H   0  0  0  0  0  0  0  0  0  0  0  0
    0.0000    0.0000    0.0000 H   0  0  0  0  0  0  0  0  0  0  0  0
    0.0000    0.0000    0.0000 H   0  0  0  0  0  0  0  0  0  0  0  0
    0.0000    0.0000    0.0000 H   0  0  0  0  0  0  0  0  0  0  0  0
    0.0000    0.0000    0.0000 H   0  0  0  0  0  0  0  0  0  0  0  0
    0.0000    0.0000    0.0000 H   0  0  0  0  0  0  0  0  0  0  0  0
    0.0000    0.0000    0.0000 H   0  0  0  0  0  0  0  0  0  0  0  0
    0.0000    0.0000    0.0000 H   0  0  0  0  0  0  0  0  0  0  0  0
    0.0000    0.0000    0.0000 H   0  0  0  0  0  0  0  0  0  0  0  0
    0.0000    0.0000    0.0000 H   0  0  0  0  0  0  0  0  0  0  0  0
    0.0000    0.0000    0.0000 H   0  0  0  0  0  0  0  0  0  0  0  0
    0.0000    0.0000    0.0000 H   0  0  0  0  0  0  0  0  0  0  0  0
    0.0000    0.0000    0.0000 H   0  0  0  0  0  0  0  0  0  0  0  0
   10.8811    5.1963   10.5022 N   0  0  0  0  0  0  0  0  0  0  0  0
    9.5905    5.2510   11.2028 C   0  0  0  0  0  0  0  0  0  0  0  0
    9.3412    6.6906   11.6111 C   0  0  0  0  0  0  0  0  0  0  0  0
   10.5031    7.0766   12.5272 C   0  0  0  0  0  0  0  0  0  0  0  0
   10.4062    8.3736   12.9787 O   0  0  0  0  0  0  0  0  0  0  0  0
   11.1589    4.2216   10.3173 H   0  0  0  0  0  0  0  0  0  0  0  0
    8.8003    4.8200   10.5963 H   0  0  0  0  0  0  0  0  0  0  0  0
    9.7366    4.6492   12.1283 H   0  0  0  0  0  0  0  0  0  0  0  0
    8.3852    6.7874   12.1352 H   0  0  0  0  0  0  0  0  0  0  0  0
    9.3698    7.2784   10.6647 H   0  0  0  0  0  0  0  0  0  0  0  0
   10.4747    6.3580   13.3688 H   0  0  0  0  0  0  0  0  0  0  0  0
   11.4708    6.9538   12.0222 H   0  0  0  0  0  0  0  0  0  0  0  0
    9.9171    8.9532   12.3453 H   0  0  0  0  0  0  0  0  0  0  0  0
  1  3  2  0
  1  4  1  0
  2  4  1  0
  1  5  1  0
  2  6  1  0
  5  6  1  0
  6  7  2  3
  5  8  1  0
  4 10  1  0
 10 11  2  0
 11 12  1  0
 12 13  2  0
 13 14  1  0
 10 15  1  0
 14 15  2  0
  9 16  2  0
  9 17  1  0
 14 18  1  0
 17 18  2  0
 18 19  1  0
 16 20  1  0
 19 20  2  0
  2 21  1  0
  7 22  1  0
  8 23  1  0
  8 24  1  0
  8 25  1  0
 11 26  1  0
 12 27  1  0
 13 28  1  0
 15 29  1  0
 16 30  1  0
 17 31  1  0
 19 32  1  0
 20 33  1  0
 34 35  1  0
 35 36  1  0
 36 37  1  0
 37 38  1  0
 34 39  1  0
 35 40  1  0
 35 41  1  0
 36 42  1  0
 36 43  1  0
 37 44  1  0
 37 45  1  0
 38 46  1  0
  4 34  1  6
M  END
>  <attachment_point>  (377) 
21

>  <score>  (377) 
<NA>

$$$$
4djw
     RDKit          3D

 39 41  0  0  0  0  0  0  0  0999 V2000
   22.4950   11.8750   22.5810 C   0  0  0  0  0  0  0  0  0  0  0  0
   22.5380    9.4930   22.4640 N   0  0  0  0  0  0  0  0  0  0  0  0
   22.3600   13.0630   22.3480 O   0  0  0  0  0  0  0  0  0  0  0  0
   22.3390   10.6680   21.5610 C   0  0  2  0  0  0  0  0  0  0  0  0
   22.7860   11.3350   23.8120 N   0  0  0  0  0  0  0  0  0  0  0  0
   22.7800    9.9140   23.7010 C   0  0  0  0  0  0  0  0  0  0  0  0
   22.9970    9.1110   24.7490 N   0  0  0  0  0  0  0  0  0  0  0  0
   23.0220   12.1410   25.0180 C   0  0  0  0  0  0  0  0  0  0  0  0
   29.1260    9.8230   21.7090 N   0  0  0  0  0  0  0  0  0  0  0  0
   23.4880   10.6920   20.5300 C   0  0  0  0  0  0  0  0  0  0  0  0
   23.2110   10.7890   19.1730 C   0  0  0  0  0  0  0  0  0  0  0  0
   24.2350   10.8650   18.2430 C   0  0  0  0  0  0  0  0  0  0  0  0
   25.5500   10.8410   18.6560 C   0  0  0  0  0  0  0  0  0  0  0  0
   25.8710   10.7460   20.0070 C   0  0  0  0  0  0  0  0  0  0  0  0
   24.8260   10.6610   20.9430 C   0  0  0  0  0  0  0  0  0  0  0  0
   29.8540   10.9130   21.4510 C   0  0  0  0  0  0  0  0  0  0  0  0
   27.8830    9.7800   21.2080 C   0  0  0  0  0  0  0  0  0  0  0  0
   27.3000   10.8010   20.4650 C   0  0  0  0  0  0  0  0  0  0  0  0
   28.0930   11.9190   20.2200 C   0  0  0  0  0  0  0  0  0  0  0  0
   29.3850   11.9780   20.7130 C   0  0  0  0  0  0  0  0  0  0  0  0
    0.0000    0.0000    0.0000 H   0  0  0  0  0  0  0  0  0  0  0  0
    0.0000    0.0000    0.0000 H   0  0  0  0  0  0  0  0  0  0  0  0
    0.0000    0.0000    0.0000 H   0  0  0  0  0  0  0  0  0  0  0  0
    0.0000    0.0000    0.0000 H   0  0  0  0  0  0  0  0  0  0  0  0
    0.0000    0.0000    0.0000 H   0  0  0  0  0  0  0  0  0  0  0  0
    0.0000    0.0000    0.0000 H   0  0  0  0  0  0  0  0  0  0  0  0
    0.0000    0.0000    0.0000 H   0  0  0  0  0  0  0  0  0  0  0  0
    0.0000    0.0000    0.0000 H   0  0  0  0  0  0  0  0  0  0  0  0
    0.0000    0.0000    0.0000 H   0  0  0  0  0  0  0  0  0  0  0  0
    0.0000    0.0000    0.0000 H   0  0  0  0  0  0  0  0  0  0  0  0
    0.0000    0.0000    0.0000 H   0  0  0  0  0  0  0  0  0  0  0  0
    0.0000    0.0000    0.0000 H   0  0  0  0  0  0  0  0  0  0  0  0
    0.0000    0.0000    0.0000 H   0  0  0  0  0  0  0  0  0  0  0  0
   10.8776    5.1946   10.4987 C   0  0  0  0  0  0  0  0  0  0  0  0
   11.0425    4.3023    9.7045 O   0  0  0  0  0  0  0  0  0  0  0  0
    9.5620    5.8743   10.5130 C   0  0  0  0  0  0  0  0  0  0  0  0
    9.7000    7.2158   10.2448 F   0  0  0  0  0  0  0  0  0  0  0  0
    9.0101    5.6973   11.7743 F   0  0  0  0  0  0  0  0  0  0  0  0
    8.6952    5.3474    9.6028 F   0  0  0  0  0  0  0  0  0  0  0  0
  1  3  2  0
  1  4  1  0
  2  4  1  0
  1  5  1  0
  2  6  1  0
  5  6  1  0
  6  7  2  3
  5  8  1  0
  4 10  1  0
 10 11  2  0
 11 12  1  0
 12 13  2  0
 13 14  1  0
 10 15  1  0
 14 15  2  0
  9 16  2  0
  9 17  1  0
 14 18  1  0
 17 18  2  0
 18 19  1  0
 16 20  1  0
 19 20  2  0
  2 21  1  0
  7 22  1  0
  8 23  1  0
  8 24  1  0
  8 25  1  0
 11 26  1  0
 12 27  1  0
 13 28  1  0
 15 29  1  0
 16 30  1  0
 17 31  1  0
 19 32  1  0
 20 33  1  0
 34 35  2  0
 34 36  1  0
 36 37  1  0
 36 38  1  0
 36 39  1  0
  4 34  1  6
M  END
>  <attachment_point>  (378) 
21

>  <score>  (378) 
<NA>

$$$$
4djw
     RDKit          3D

 49 53  0  0  0  0  0  0  0  0999 V2000
   22.4950   11.8750   22.5810 C   0  0  0  0  0  0  0  0  0  0  0  0
   22.5380    9.4930   22.4640 N   0  0  0  0  0  0  0  0  0  0  0  0
   22.3600   13.0630   22.3480 O   0  0  0  0  0  0  0  0  0  0  0  0
   22.3390   10.6680   21.5610 C   0  0  2  0  0  0  0  0  0  0  0  0
   22.7860   11.3350   23.8120 N   0  0  0  0  0  0  0  0  0  0  0  0
   22.7800    9.9140   23.7010 C   0  0  0  0  0  0  0  0  0  0  0  0
   22.9970    9.1110   24.7490 N   0  0  0  0  0  0  0  0  0  0  0  0
   23.0220   12.1410   25.0180 C   0  0  0  0  0  0  0  0  0  0  0  0
   29.1260    9.8230   21.7090 N   0  0  0  0  0  0  0  0  0  0  0  0
   23.4880   10.6920   20.5300 C   0  0  0  0  0  0  0  0  0  0  0  0
   23.2110   10.7890   19.1730 C   0  0  0  0  0  0  0  0  0  0  0  0
   24.2350   10.8650   18.2430 C   0  0  0  0  0  0  0  0  0  0  0  0
   25.5500   10.8410   18.6560 C   0  0  0  0  0  0  0  0  0  0  0  0
   25.8710   10.7460   20.0070 C   0  0  0  0  0  0  0  0  0  0  0  0
   24.8260   10.6610   20.9430 C   0  0  0  0  0  0  0  0  0  0  0  0
   29.8540   10.9130   21.4510 C   0  0  0  0  0  0  0  0  0  0  0  0
   27.8830    9.7800   21.2080 C   0  0  0  0  0  0  0  0  0  0  0  0
   27.3000   10.8010   20.4650 C   0  0  0  0  0  0  0  0  0  0  0  0
   28.0930   11.9190   20.2200 C   0  0  0  0  0  0  0  0  0  0  0  0
   29.3850   11.9780   20.7130 C   0  0  0  0  0  0  0  0  0  0  0  0
    0.0000    0.0000    0.0000 H   0  0  0  0  0  0  0  0  0  0  0  0
    0.0000    0.0000    0.0000 H   0  0  0  0  0  0  0  0  0  0  0  0
    0.0000    0.0000    0.0000 H   0  0  0  0  0  0  0  0  0  0  0  0
    0.0000    0.0000    0.0000 H   0  0  0  0  0  0  0  0  0  0  0  0
    0.0000    0.0000    0.0000 H   0  0  0  0  0  0  0  0  0  0  0  0
    0.0000    0.0000    0.0000 H   0  0  0  0  0  0  0  0  0  0  0  0
    0.0000    0.0000    0.0000 H   0  0  0  0  0  0  0  0  0  0  0  0
    0.0000    0.0000    0.0000 H   0  0  0  0  0  0  0  0  0  0  0  0
    0.0000    0.0000    0.0000 H   0  0  0  0  0  0  0  0  0  0  0  0
    0.0000    0.0000    0.0000 H   0  0  0  0  0  0  0  0  0  0  0  0
    0.0000    0.0000    0.0000 H   0  0  0  0  0  0  0  0  0  0  0  0
    0.0000    0.0000    0.0000 H   0  0  0  0  0  0  0  0  0  0  0  0
    0.0000    0.0000    0.0000 H   0  0  0  0  0  0  0  0  0  0  0  0
   10.8926    5.2018   10.5132 C   0  0  0  0  0  0  0  0  0  0  0  0
   10.3968    3.9140   10.5715 C   0  0  0  0  0  0  0  0  0  0  0  0
    9.4597    3.5373    9.6309 C   0  0  0  0  0  0  0  0  0  0  0  0
    9.0235    4.4138    8.6562 C   0  0  0  0  0  0  0  0  0  0  0  0
    8.1110    4.0589    7.7343 N   0  0  0  0  0  0  0  0  0  0  0  0
    7.6688    4.8969    6.7719 C   0  0  0  0  0  0  0  0  0  0  0  0
    8.1368    6.2071    6.6687 C   0  0  0  0  0  0  0  0  0  0  0  0
    9.0735    6.5819    7.6096 C   0  0  0  0  0  0  0  0  0  0  0  0
    9.5113    5.7059    8.5862 C   0  0  0  0  0  0  0  0  0  0  0  0
   10.4485    6.0715    9.5324 C   0  0  0  0  0  0  0  0  0  0  0  0
   10.7317    3.2087   11.3365 H   0  0  0  0  0  0  0  0  0  0  0  0
    9.0732    2.5226    9.6818 H   0  0  0  0  0  0  0  0  0  0  0  0
    6.9443    4.5717    6.0620 H   0  0  0  0  0  0  0  0  0  0  0  0
    7.7835    6.8795    5.8980 H   0  0  0  0  0  0  0  0  0  0  0  0
    9.4542    7.5917    7.5542 H   0  0  0  0  0  0  0  0  0  0  0  0
   10.8247    7.0915    9.4664 H   0  0  0  0  0  0  0  0  0  0  0  0
  1  3  2  0
  1  4  1  0
  2  4  1  0
  1  5  1  0
  2  6  1  0
  5  6  1  0
  6  7  2  3
  5  8  1  0
  4 10  1  6
 10 11  2  0
 11 12  1  0
 12 13  2  0
 13 14  1  0
 10 15  1  0
 14 15  2  0
  9 16  2  0
  9 17  1  0
 14 18  1  0
 17 18  2  0
 18 19  1  0
 16 20  1  0
 19 20  2  0
  2 21  1  0
  7 22  1  0
  8 23  1  0
  8 24  1  0
  8 25  1  0
 11 26  1  0
 12 27  1  0
 13 28  1  0
 15 29  1  0
 16 30  1  0
 17 31  1  0
 19 32  1  0
 20 33  1  0
 34 35  2  0
 35 36  1  0
 36 37  2  0
 37 38  1  0
 38 39  2  0
 39 40  1  0
 40 41  2  0
 41 42  1  0
 42 43  2  0
 43 34  1  0
 42 37  1  0
 35 44  1  0
 36 45  1  0
 39 46  1  0
 40 47  1  0
 41 48  1  0
 43 49  1  0
  4 34  1  0
M  END
>  <attachment_point>  (379) 
21

>  <score>  (379) 
<NA>

$$$$
4djw
     RDKit          3D

 46 49  0  0  0  0  0  0  0  0999 V2000
   22.4950   11.8750   22.5810 C   0  0  0  0  0  0  0  0  0  0  0  0
   22.5380    9.4930   22.4640 N   0  0  0  0  0  0  0  0  0  0  0  0
   22.3600   13.0630   22.3480 O   0  0  0  0  0  0  0  0  0  0  0  0
   22.3390   10.6680   21.5610 C   0  0  2  0  0  0  0  0  0  0  0  0
   22.7860   11.3350   23.8120 N   0  0  0  0  0  0  0  0  0  0  0  0
   22.7800    9.9140   23.7010 C   0  0  0  0  0  0  0  0  0  0  0  0
   22.9970    9.1110   24.7490 N   0  0  0  0  0  0  0  0  0  0  0  0
   23.0220   12.1410   25.0180 C   0  0  0  0  0  0  0  0  0  0  0  0
   29.1260    9.8230   21.7090 N   0  0  0  0  0  0  0  0  0  0  0  0
   23.4880   10.6920   20.5300 C   0  0  0  0  0  0  0  0  0  0  0  0
   23.2110   10.7890   19.1730 C   0  0  0  0  0  0  0  0  0  0  0  0
   24.2350   10.8650   18.2430 C   0  0  0  0  0  0  0  0  0  0  0  0
   25.5500   10.8410   18.6560 C   0  0  0  0  0  0  0  0  0  0  0  0
   25.8710   10.7460   20.0070 C   0  0  0  0  0  0  0  0  0  0  0  0
   24.8260   10.6610   20.9430 C   0  0  0  0  0  0  0  0  0  0  0  0
   29.8540   10.9130   21.4510 C   0  0  0  0  0  0  0  0  0  0  0  0
   27.8830    9.7800   21.2080 C   0  0  0  0  0  0  0  0  0  0  0  0
   27.3000   10.8010   20.4650 C   0  0  0  0  0  0  0  0  0  0  0  0
   28.0930   11.9190   20.2200 C   0  0  0  0  0  0  0  0  0  0  0  0
   29.3850   11.9780   20.7130 C   0  0  0  0  0  0  0  0  0  0  0  0
    0.0000    0.0000    0.0000 H   0  0  0  0  0  0  0  0  0  0  0  0
    0.0000    0.0000    0.0000 H   0  0  0  0  0  0  0  0  0  0  0  0
    0.0000    0.0000    0.0000 H   0  0  0  0  0  0  0  0  0  0  0  0
    0.0000    0.0000    0.0000 H   0  0  0  0  0  0  0  0  0  0  0  0
    0.0000    0.0000    0.0000 H   0  0  0  0  0  0  0  0  0  0  0  0
    0.0000    0.0000    0.0000 H   0  0  0  0  0  0  0  0  0  0  0  0
    0.0000    0.0000    0.0000 H   0  0  0  0  0  0  0  0  0  0  0  0
    0.0000    0.0000    0.0000 H   0  0  0  0  0  0  0  0  0  0  0  0
    0.0000    0.0000    0.0000 H   0  0  0  0  0  0  0  0  0  0  0  0
    0.0000    0.0000    0.0000 H   0  0  0  0  0  0  0  0  0  0  0  0
    0.0000    0.0000    0.0000 H   0  0  0  0  0  0  0  0  0  0  0  0
    0.0000    0.0000    0.0000 H   0  0  0  0  0  0  0  0  0  0  0  0
    0.0000    0.0000    0.0000 H   0  0  0  0  0  0  0  0  0  0  0  0
   10.8694    5.1907   10.4909 C   0  0  1  0  0  0  0  0  0  0  0  0
   10.3628    3.8842   11.1065 C   0  0  0  0  0  0  0  0  0  0  0  0
    9.4761    4.4739   12.2089 C   0  0  0  0  0  0  0  0  0  0  0  0
    8.7675    5.5758   11.4138 C   0  0  0  0  0  0  0  0  0  0  0  0
    9.7858    6.1188   10.5380 N   0  0  0  0  0  0  0  0  0  0  0  0
   11.3061    5.0398    9.4977 H   0  0  0  0  0  0  0  0  0  0  0  0
    9.6821    3.3670   10.3895 H   0  0  0  0  0  0  0  0  0  0  0  0
   11.1621    3.2612   11.4963 H   0  0  0  0  0  0  0  0  0  0  0  0
    8.7917    3.7503   12.6328 H   0  0  0  0  0  0  0  0  0  0  0  0
   10.1398    4.9884   12.9135 H   0  0  0  0  0  0  0  0  0  0  0  0
    8.0354    5.0562   10.7735 H   0  0  0  0  0  0  0  0  0  0  0  0
    8.3317    6.3376   12.0762 H   0  0  0  0  0  0  0  0  0  0  0  0
   10.0872    7.0690   10.8982 H   0  0  0  0  0  0  0  0  0  0  0  0
  1  3  2  0
  1  4  1  0
  2  4  1  0
  1  5  1  0
  2  6  1  0
  5  6  1  0
  6  7  2  3
  5  8  1  0
  4 10  1  6
 10 11  2  0
 11 12  1  0
 12 13  2  0
 13 14  1  0
 10 15  1  0
 14 15  2  0
  9 16  2  0
  9 17  1  0
 14 18  1  0
 17 18  2  0
 18 19  1  0
 16 20  1  0
 19 20  2  0
  2 21  1  0
  7 22  1  0
  8 23  1  0
  8 24  1  0
  8 25  1  0
 11 26  1  0
 12 27  1  0
 13 28  1  0
 15 29  1  0
 16 30  1  0
 17 31  1  0
 19 32  1  0
 20 33  1  0
 34 35  1  0
 35 36  1  0
 36 37  1  0
 37 38  1  0
 38 34  1  0
 34 39  1  1
 35 40  1  0
 35 41  1  0
 36 42  1  0
 36 43  1  0
 37 44  1  0
 37 45  1  0
 38 46  1  0
  4 34  1  0
M  END
>  <attachment_point>  (380) 
21

>  <score>  (380) 
<NA>

$$$$
4djw
     RDKit          3D

 48 51  0  0  0  0  0  0  0  0999 V2000
   22.4950   11.8750   22.5810 C   0  0  0  0  0  0  0  0  0  0  0  0
   22.5380    9.4930   22.4640 N   0  0  0  0  0  0  0  0  0  0  0  0
   22.3600   13.0630   22.3480 O   0  0  0  0  0  0  0  0  0  0  0  0
   22.3390   10.6680   21.5610 C   0  0  2  0  0  0  0  0  0  0  0  0
   22.7860   11.3350   23.8120 N   0  0  0  0  0  0  0  0  0  0  0  0
   22.7800    9.9140   23.7010 C   0  0  0  0  0  0  0  0  0  0  0  0
   22.9970    9.1110   24.7490 N   0  0  0  0  0  0  0  0  0  0  0  0
   23.0220   12.1410   25.0180 C   0  0  0  0  0  0  0  0  0  0  0  0
   29.1260    9.8230   21.7090 N   0  0  0  0  0  0  0  0  0  0  0  0
   23.4880   10.6920   20.5300 C   0  0  0  0  0  0  0  0  0  0  0  0
   23.2110   10.7890   19.1730 C   0  0  0  0  0  0  0  0  0  0  0  0
   24.2350   10.8650   18.2430 C   0  0  0  0  0  0  0  0  0  0  0  0
   25.5500   10.8410   18.6560 C   0  0  0  0  0  0  0  0  0  0  0  0
   25.8710   10.7460   20.0070 C   0  0  0  0  0  0  0  0  0  0  0  0
   24.8260   10.6610   20.9430 C   0  0  0  0  0  0  0  0  0  0  0  0
   29.8540   10.9130   21.4510 C   0  0  0  0  0  0  0  0  0  0  0  0
   27.8830    9.7800   21.2080 C   0  0  0  0  0  0  0  0  0  0  0  0
   27.3000   10.8010   20.4650 C   0  0  0  0  0  0  0  0  0  0  0  0
   28.0930   11.9190   20.2200 C   0  0  0  0  0  0  0  0  0  0  0  0
   29.3850   11.9780   20.7130 C   0  0  0  0  0  0  0  0  0  0  0  0
    0.0000    0.0000    0.0000 H   0  0  0  0  0  0  0  0  0  0  0  0
    0.0000    0.0000    0.0000 H   0  0  0  0  0  0  0  0  0  0  0  0
    0.0000    0.0000    0.0000 H   0  0  0  0  0  0  0  0  0  0  0  0
    0.0000    0.0000    0.0000 H   0  0  0  0  0  0  0  0  0  0  0  0
    0.0000    0.0000    0.0000 H   0  0  0  0  0  0  0  0  0  0  0  0
    0.0000    0.0000    0.0000 H   0  0  0  0  0  0  0  0  0  0  0  0
    0.0000    0.0000    0.0000 H   0  0  0  0  0  0  0  0  0  0  0  0
    0.0000    0.0000    0.0000 H   0  0  0  0  0  0  0  0  0  0  0  0
    0.0000    0.0000    0.0000 H   0  0  0  0  0  0  0  0  0  0  0  0
    0.0000    0.0000    0.0000 H   0  0  0  0  0  0  0  0  0  0  0  0
    0.0000    0.0000    0.0000 H   0  0  0  0  0  0  0  0  0  0  0  0
    0.0000    0.0000    0.0000 H   0  0  0  0  0  0  0  0  0  0  0  0
    0.0000    0.0000    0.0000 H   0  0  0  0  0  0  0  0  0  0  0  0
   10.7731    5.1447   10.3979 S   0  0  0  0  0  0  0  0  0  0  0  0
   10.2930    3.7022   11.3869 C   0  0  0  0  0  0  0  0  0  0  0  0
    9.6336    4.1344   12.6480 C   0  0  0  0  0  0  0  0  0  0  0  0
    8.2464    4.3119   12.6671 C   0  0  0  0  0  0  0  0  0  0  0  0
    7.6166    4.7131   13.8293 C   0  0  0  0  0  0  0  0  0  0  0  0
    8.3065    4.9526   14.9985 C   0  0  0  0  0  0  0  0  0  0  0  0
    9.6726    4.7762   14.9741 C   0  0  0  0  0  0  0  0  0  0  0  0
   10.3303    4.3723   13.8145 C   0  0  0  0  0  0  0  0  0  0  0  0
   11.1961    3.1037   11.5995 H   0  0  0  0  0  0  0  0  0  0  0  0
    9.5456    3.1541   10.8046 H   0  0  0  0  0  0  0  0  0  0  0  0
    7.7180    4.1202   11.7412 H   0  0  0  0  0  0  0  0  0  0  0  0
    6.5439    4.8394   13.8036 H   0  0  0  0  0  0  0  0  0  0  0  0
    7.8463    5.2666   15.9240 H   0  0  0  0  0  0  0  0  0  0  0  0
   10.3159    4.9356   15.8352 H   0  0  0  0  0  0  0  0  0  0  0  0
   11.4033    4.2298   13.7793 H   0  0  0  0  0  0  0  0  0  0  0  0
  1  3  2  0
  1  4  1  0
  2  4  1  0
  1  5  1  0
  2  6  1  0
  5  6  1  0
  6  7  2  3
  5  8  1  0
  4 10  1  0
 10 11  2  0
 11 12  1  0
 12 13  2  0
 13 14  1  0
 10 15  1  0
 14 15  2  0
  9 16  2  0
  9 17  1  0
 14 18  1  0
 17 18  2  0
 18 19  1  0
 16 20  1  0
 19 20  2  0
  2 21  1  0
  7 22  1  0
  8 23  1  0
  8 24  1  0
  8 25  1  0
 11 26  1  0
 12 27  1  0
 13 28  1  0
 15 29  1  0
 16 30  1  0
 17 31  1  0
 19 32  1  0
 20 33  1  0
 34 35  1  0
 35 36  1  0
 36 37  2  0
 37 38  1  0
 38 39  2  0
 39 40  1  0
 40 41  2  0
 41 36  1  0
 35 42  1  0
 35 43  1  0
 37 44  1  0
 38 45  1  0
 39 46  1  0
 40 47  1  0
 41 48  1  0
  4 34  1  6
M  END
>  <attachment_point>  (381) 
21

>  <score>  (381) 
<NA>

$$$$
4djw
     RDKit          3D

 47 49  0  0  0  0  0  0  0  0999 V2000
   22.4950   11.8750   22.5810 C   0  0  0  0  0  0  0  0  0  0  0  0
   22.5380    9.4930   22.4640 N   0  0  0  0  0  0  0  0  0  0  0  0
   22.3600   13.0630   22.3480 O   0  0  0  0  0  0  0  0  0  0  0  0
   22.3390   10.6680   21.5610 C   0  0  2  0  0  0  0  0  0  0  0  0
   22.7860   11.3350   23.8120 N   0  0  0  0  0  0  0  0  0  0  0  0
   22.7800    9.9140   23.7010 C   0  0  0  0  0  0  0  0  0  0  0  0
   22.9970    9.1110   24.7490 N   0  0  0  0  0  0  0  0  0  0  0  0
   23.0220   12.1410   25.0180 C   0  0  0  0  0  0  0  0  0  0  0  0
   29.1260    9.8230   21.7090 N   0  0  0  0  0  0  0  0  0  0  0  0
   23.4880   10.6920   20.5300 C   0  0  0  0  0  0  0  0  0  0  0  0
   23.2110   10.7890   19.1730 C   0  0  0  0  0  0  0  0  0  0  0  0
   24.2350   10.8650   18.2430 C   0  0  0  0  0  0  0  0  0  0  0  0
   25.5500   10.8410   18.6560 C   0  0  0  0  0  0  0  0  0  0  0  0
   25.8710   10.7460   20.0070 C   0  0  0  0  0  0  0  0  0  0  0  0
   24.8260   10.6610   20.9430 C   0  0  0  0  0  0  0  0  0  0  0  0
   29.8540   10.9130   21.4510 C   0  0  0  0  0  0  0  0  0  0  0  0
   27.8830    9.7800   21.2080 C   0  0  0  0  0  0  0  0  0  0  0  0
   27.3000   10.8010   20.4650 C   0  0  0  0  0  0  0  0  0  0  0  0
   28.0930   11.9190   20.2200 C   0  0  0  0  0  0  0  0  0  0  0  0
   29.3850   11.9780   20.7130 C   0  0  0  0  0  0  0  0  0  0  0  0
    0.0000    0.0000    0.0000 H   0  0  0  0  0  0  0  0  0  0  0  0
    0.0000    0.0000    0.0000 H   0  0  0  0  0  0  0  0  0  0  0  0
    0.0000    0.0000    0.0000 H   0  0  0  0  0  0  0  0  0  0  0  0
    0.0000    0.0000    0.0000 H   0  0  0  0  0  0  0  0  0  0  0  0
    0.0000    0.0000    0.0000 H   0  0  0  0  0  0  0  0  0  0  0  0
    0.0000    0.0000    0.0000 H   0  0  0  0  0  0  0  0  0  0  0  0
    0.0000    0.0000    0.0000 H   0  0  0  0  0  0  0  0  0  0  0  0
    0.0000    0.0000    0.0000 H   0  0  0  0  0  0  0  0  0  0  0  0
    0.0000    0.0000    0.0000 H   0  0  0  0  0  0  0  0  0  0  0  0
    0.0000    0.0000    0.0000 H   0  0  0  0  0  0  0  0  0  0  0  0
    0.0000    0.0000    0.0000 H   0  0  0  0  0  0  0  0  0  0  0  0
    0.0000    0.0000    0.0000 H   0  0  0  0  0  0  0  0  0  0  0  0
    0.0000    0.0000    0.0000 H   0  0  0  0  0  0  0  0  0  0  0  0
   10.8535    5.1831   10.4755 C   0  0  0  0  0  0  0  0  0  0  0  0
   11.6394    4.1399    9.7182 C   0  0  0  0  0  0  0  0  0  0  0  0
   12.7993    4.7035    9.0724 N   0  0  0  0  0  0  0  0  0  0  0  0
   13.7113    3.9805    8.3028 C   0  0  0  0  0  0  0  0  0  0  0  0
   14.8786    4.6236    7.6700 C   0  0  0  0  0  0  0  0  0  0  0  0
   13.5214    2.7398    8.1507 O   0  0  0  0  0  0  0  0  0  0  0  0
   10.6095    6.0706    9.8976 H   0  0  0  0  0  0  0  0  0  0  0  0
   10.0603    4.7649   11.0921 H   0  0  0  0  0  0  0  0  0  0  0  0
   12.0079    3.4032   10.4610 H   0  0  0  0  0  0  0  0  0  0  0  0
   10.9992    3.6242    8.9786 H   0  0  0  0  0  0  0  0  0  0  0  0
   12.9655    5.7432    9.1951 H   0  0  0  0  0  0  0  0  0  0  0  0
   15.8075    3.9963    7.7697 H   0  0  0  0  0  0  0  0  0  0  0  0
   15.0140    5.6203    8.1332 H   0  0  0  0  0  0  0  0  0  0  0  0
   14.6272    4.7869    6.5979 H   0  0  0  0  0  0  0  0  0  0  0  0
  1  3  2  0
  1  4  1  0
  2  4  1  0
  1  5  1  0
  2  6  1  0
  5  6  1  0
  6  7  2  3
  5  8  1  0
  4 10  1  0
 10 11  2  0
 11 12  1  0
 12 13  2  0
 13 14  1  0
 10 15  1  0
 14 15  2  0
  9 16  2  0
  9 17  1  0
 14 18  1  0
 17 18  2  0
 18 19  1  0
 16 20  1  0
 19 20  2  0
  2 21  1  0
  7 22  1  0
  8 23  1  0
  8 24  1  0
  8 25  1  0
 11 26  1  0
 12 27  1  0
 13 28  1  0
 15 29  1  0
 16 30  1  0
 17 31  1  0
 19 32  1  0
 20 33  1  0
 34 35  1  0
 35 36  1  0
 36 37  1  0
 37 38  1  0
 37 39  2  0
 34 40  1  0
 34 41  1  0
 35 42  1  0
 35 43  1  0
 36 44  1  0
 38 45  1  0
 38 46  1  0
 38 47  1  0
  4 34  1  6
M  END
>  <attachment_point>  (382) 
21

>  <score>  (382) 
<NA>

$$$$
4djw
     RDKit          3D

 49 52  0  0  0  0  0  0  0  0999 V2000
   22.4950   11.8750   22.5810 C   0  0  0  0  0  0  0  0  0  0  0  0
   22.5380    9.4930   22.4640 N   0  0  0  0  0  0  0  0  0  0  0  0
   22.3600   13.0630   22.3480 O   0  0  0  0  0  0  0  0  0  0  0  0
   22.3390   10.6680   21.5610 C   0  0  2  0  0  0  0  0  0  0  0  0
   22.7860   11.3350   23.8120 N   0  0  0  0  0  0  0  0  0  0  0  0
   22.7800    9.9140   23.7010 C   0  0  0  0  0  0  0  0  0  0  0  0
   22.9970    9.1110   24.7490 N   0  0  0  0  0  0  0  0  0  0  0  0
   23.0220   12.1410   25.0180 C   0  0  0  0  0  0  0  0  0  0  0  0
   29.1260    9.8230   21.7090 N   0  0  0  0  0  0  0  0  0  0  0  0
   23.4880   10.6920   20.5300 C   0  0  0  0  0  0  0  0  0  0  0  0
   23.2110   10.7890   19.1730 C   0  0  0  0  0  0  0  0  0  0  0  0
   24.2350   10.8650   18.2430 C   0  0  0  0  0  0  0  0  0  0  0  0
   25.5500   10.8410   18.6560 C   0  0  0  0  0  0  0  0  0  0  0  0
   25.8710   10.7460   20.0070 C   0  0  0  0  0  0  0  0  0  0  0  0
   24.8260   10.6610   20.9430 C   0  0  0  0  0  0  0  0  0  0  0  0
   29.8540   10.9130   21.4510 C   0  0  0  0  0  0  0  0  0  0  0  0
   27.8830    9.7800   21.2080 C   0  0  0  0  0  0  0  0  0  0  0  0
   27.3000   10.8010   20.4650 C   0  0  0  0  0  0  0  0  0  0  0  0
   28.0930   11.9190   20.2200 C   0  0  0  0  0  0  0  0  0  0  0  0
   29.3850   11.9780   20.7130 C   0  0  0  0  0  0  0  0  0  0  0  0
    0.0000    0.0000    0.0000 H   0  0  0  0  0  0  0  0  0  0  0  0
    0.0000    0.0000    0.0000 H   0  0  0  0  0  0  0  0  0  0  0  0
    0.0000    0.0000    0.0000 H   0  0  0  0  0  0  0  0  0  0  0  0
    0.0000    0.0000    0.0000 H   0  0  0  0  0  0  0  0  0  0  0  0
    0.0000    0.0000    0.0000 H   0  0  0  0  0  0  0  0  0  0  0  0
    0.0000    0.0000    0.0000 H   0  0  0  0  0  0  0  0  0  0  0  0
    0.0000    0.0000    0.0000 H   0  0  0  0  0  0  0  0  0  0  0  0
    0.0000    0.0000    0.0000 H   0  0  0  0  0  0  0  0  0  0  0  0
    0.0000    0.0000    0.0000 H   0  0  0  0  0  0  0  0  0  0  0  0
    0.0000    0.0000    0.0000 H   0  0  0  0  0  0  0  0  0  0  0  0
    0.0000    0.0000    0.0000 H   0  0  0  0  0  0  0  0  0  0  0  0
    0.0000    0.0000    0.0000 H   0  0  0  0  0  0  0  0  0  0  0  0
    0.0000    0.0000    0.0000 H   0  0  0  0  0  0  0  0  0  0  0  0
   10.8993    5.2050   10.5197 N   0  0  0  0  0  0  0  0  0  0  0  0
   10.3682    6.0582    9.4959 C   0  0  0  0  0  0  0  0  0  0  0  0
   10.4469    3.8591   10.6051 C   0  0  0  0  0  0  0  0  0  0  0  0
    9.5100    3.3625    9.7236 C   0  0  0  0  0  0  0  0  0  0  0  0
    9.0790    2.0423    9.8226 C   0  0  0  0  0  0  0  0  0  0  0  0
    9.5652    1.1901   10.7927 C   0  0  0  0  0  0  0  0  0  0  0  0
   10.5008    1.7029   11.6649 C   0  0  0  0  0  0  0  0  0  0  0  0
   10.9375    3.0096   11.5791 C   0  0  0  0  0  0  0  0  0  0  0  0
   10.8451    5.8460    8.5208 H   0  0  0  0  0  0  0  0  0  0  0  0
   10.6419    7.1241    9.7517 H   0  0  0  0  0  0  0  0  0  0  0  0
    9.2528    5.9893    9.4516 H   0  0  0  0  0  0  0  0  0  0  0  0
    9.1107    4.0164    8.9481 H   0  0  0  0  0  0  0  0  0  0  0  0
    8.3441    1.6574    9.1291 H   0  0  0  0  0  0  0  0  0  0  0  0
    9.2418    0.1561   10.8869 H   0  0  0  0  0  0  0  0  0  0  0  0
   10.8834    1.0240   12.4321 H   0  0  0  0  0  0  0  0  0  0  0  0
   11.6789    3.4101   12.2731 H   0  0  0  0  0  0  0  0  0  0  0  0
  1  3  2  0
  1  4  1  0
  2  4  1  0
  1  5  1  0
  2  6  1  0
  5  6  1  0
  6  7  2  3
  5  8  1  0
  4 10  1  0
 10 11  2  0
 11 12  1  0
 12 13  2  0
 13 14  1  0
 10 15  1  0
 14 15  2  0
  9 16  2  0
  9 17  1  0
 14 18  1  0
 17 18  2  0
 18 19  1  0
 16 20  1  0
 19 20  2  0
  2 21  1  0
  7 22  1  0
  8 23  1  0
  8 24  1  0
  8 25  1  0
 11 26  1  0
 12 27  1  0
 13 28  1  0
 15 29  1  0
 16 30  1  0
 17 31  1  0
 19 32  1  0
 20 33  1  0
 34 35  1  0
 34 36  1  0
 36 37  2  0
 37 38  1  0
 38 39  2  0
 39 40  1  0
 40 41  2  0
 41 36  1  0
 35 42  1  0
 35 43  1  0
 35 44  1  0
 37 45  1  0
 38 46  1  0
 39 47  1  0
 40 48  1  0
 41 49  1  0
  4 34  1  6
M  END
>  <attachment_point>  (383) 
21

>  <score>  (383) 
<NA>

$$$$
4djw
     RDKit          3D

 38 40  0  0  0  0  0  0  0  0999 V2000
   22.4950   11.8750   22.5810 C   0  0  0  0  0  0  0  0  0  0  0  0
   22.5380    9.4930   22.4640 N   0  0  0  0  0  0  0  0  0  0  0  0
   22.3600   13.0630   22.3480 O   0  0  0  0  0  0  0  0  0  0  0  0
   22.3390   10.6680   21.5610 C   0  0  2  0  0  0  0  0  0  0  0  0
   22.7860   11.3350   23.8120 N   0  0  0  0  0  0  0  0  0  0  0  0
   22.7800    9.9140   23.7010 C   0  0  0  0  0  0  0  0  0  0  0  0
   22.9970    9.1110   24.7490 N   0  0  0  0  0  0  0  0  0  0  0  0
   23.0220   12.1410   25.0180 C   0  0  0  0  0  0  0  0  0  0  0  0
   29.1260    9.8230   21.7090 N   0  0  0  0  0  0  0  0  0  0  0  0
   23.4880   10.6920   20.5300 C   0  0  0  0  0  0  0  0  0  0  0  0
   23.2110   10.7890   19.1730 C   0  0  0  0  0  0  0  0  0  0  0  0
   24.2350   10.8650   18.2430 C   0  0  0  0  0  0  0  0  0  0  0  0
   25.5500   10.8410   18.6560 C   0  0  0  0  0  0  0  0  0  0  0  0
   25.8710   10.7460   20.0070 C   0  0  0  0  0  0  0  0  0  0  0  0
   24.8260   10.6610   20.9430 C   0  0  0  0  0  0  0  0  0  0  0  0
   29.8540   10.9130   21.4510 C   0  0  0  0  0  0  0  0  0  0  0  0
   27.8830    9.7800   21.2080 C   0  0  0  0  0  0  0  0  0  0  0  0
   27.3000   10.8010   20.4650 C   0  0  0  0  0  0  0  0  0  0  0  0
   28.0930   11.9190   20.2200 C   0  0  0  0  0  0  0  0  0  0  0  0
   29.3850   11.9780   20.7130 C   0  0  0  0  0  0  0  0  0  0  0  0
    0.0000    0.0000    0.0000 H   0  0  0  0  0  0  0  0  0  0  0  0
    0.0000    0.0000    0.0000 H   0  0  0  0  0  0  0  0  0  0  0  0
    0.0000    0.0000    0.0000 H   0  0  0  0  0  0  0  0  0  0  0  0
    0.0000    0.0000    0.0000 H   0  0  0  0  0  0  0  0  0  0  0  0
    0.0000    0.0000    0.0000 H   0  0  0  0  0  0  0  0  0  0  0  0
    0.0000    0.0000    0.0000 H   0  0  0  0  0  0  0  0  0  0  0  0
    0.0000    0.0000    0.0000 H   0  0  0  0  0  0  0  0  0  0  0  0
    0.0000    0.0000    0.0000 H   0  0  0  0  0  0  0  0  0  0  0  0
    0.0000    0.0000    0.0000 H   0  0  0  0  0  0  0  0  0  0  0  0
    0.0000    0.0000    0.0000 H   0  0  0  0  0  0  0  0  0  0  0  0
    0.0000    0.0000    0.0000 H   0  0  0  0  0  0  0  0  0  0  0  0
    0.0000    0.0000    0.0000 H   0  0  0  0  0  0  0  0  0  0  0  0
    0.0000    0.0000    0.0000 H   0  0  0  0  0  0  0  0  0  0  0  0
   10.9435    5.2261   10.5623 S   0  0  0  0  0  0  0  0  0  0  0  0
    9.1458    5.2706   10.6357 C   0  0  0  0  0  0  0  0  0  0  0  0
    8.7097    6.4248   11.2614 F   0  0  0  0  0  0  0  0  0  0  0  0
    8.6554    5.2244    9.3346 F   0  0  0  0  0  0  0  0  0  0  0  0
    8.6682    4.1771   11.3538 F   0  0  0  0  0  0  0  0  0  0  0  0
  1  3  2  0
  1  4  1  0
  2  4  1  0
  1  5  1  0
  2  6  1  0
  5  6  1  0
  6  7  2  3
  5  8  1  0
  4 10  1  0
 10 11  2  0
 11 12  1  0
 12 13  2  0
 13 14  1  0
 10 15  1  0
 14 15  2  0
  9 16  2  0
  9 17  1  0
 14 18  1  0
 17 18  2  0
 18 19  1  0
 16 20  1  0
 19 20  2  0
  2 21  1  0
  7 22  1  0
  8 23  1  0
  8 24  1  0
  8 25  1  0
 11 26  1  0
 12 27  1  0
 13 28  1  0
 15 29  1  0
 16 30  1  0
 17 31  1  0
 19 32  1  0
 20 33  1  0
 34 35  1  0
 35 36  1  0
 35 37  1  0
 35 38  1  0
  4 34  1  6
M  END
>  <attachment_point>  (384) 
21

>  <score>  (384) 
<NA>

$$$$
4djw
     RDKit          3D

 61 65  0  0  0  0  0  0  0  0999 V2000
   22.4950   11.8750   22.5810 C   0  0  0  0  0  0  0  0  0  0  0  0
   22.5380    9.4930   22.4640 N   0  0  0  0  0  0  0  0  0  0  0  0
   22.3600   13.0630   22.3480 O   0  0  0  0  0  0  0  0  0  0  0  0
   22.3390   10.6680   21.5610 C   0  0  2  0  0  0  0  0  0  0  0  0
   22.7860   11.3350   23.8120 N   0  0  0  0  0  0  0  0  0  0  0  0
   22.7800    9.9140   23.7010 C   0  0  0  0  0  0  0  0  0  0  0  0
   22.9970    9.1110   24.7490 N   0  0  0  0  0  0  0  0  0  0  0  0
   23.0220   12.1410   25.0180 C   0  0  0  0  0  0  0  0  0  0  0  0
   29.1260    9.8230   21.7090 N   0  0  0  0  0  0  0  0  0  0  0  0
   23.4880   10.6920   20.5300 C   0  0  0  0  0  0  0  0  0  0  0  0
   23.2110   10.7890   19.1730 C   0  0  0  0  0  0  0  0  0  0  0  0
   24.2350   10.8650   18.2430 C   0  0  0  0  0  0  0  0  0  0  0  0
   25.5500   10.8410   18.6560 C   0  0  0  0  0  0  0  0  0  0  0  0
   25.8710   10.7460   20.0070 C   0  0  0  0  0  0  0  0  0  0  0  0
   24.8260   10.6610   20.9430 C   0  0  0  0  0  0  0  0  0  0  0  0
   29.8540   10.9130   21.4510 C   0  0  0  0  0  0  0  0  0  0  0  0
   27.8830    9.7800   21.2080 C   0  0  0  0  0  0  0  0  0  0  0  0
   27.3000   10.8010   20.4650 C   0  0  0  0  0  0  0  0  0  0  0  0
   28.0930   11.9190   20.2200 C   0  0  0  0  0  0  0  0  0  0  0  0
   29.3850   11.9780   20.7130 C   0  0  0  0  0  0  0  0  0  0  0  0
    0.0000    0.0000    0.0000 H   0  0  0  0  0  0  0  0  0  0  0  0
    0.0000    0.0000    0.0000 H   0  0  0  0  0  0  0  0  0  0  0  0
    0.0000    0.0000    0.0000 H   0  0  0  0  0  0  0  0  0  0  0  0
    0.0000    0.0000    0.0000 H   0  0  0  0  0  0  0  0  0  0  0  0
    0.0000    0.0000    0.0000 H   0  0  0  0  0  0  0  0  0  0  0  0
    0.0000    0.0000    0.0000 H   0  0  0  0  0  0  0  0  0  0  0  0
    0.0000    0.0000    0.0000 H   0  0  0  0  0  0  0  0  0  0  0  0
    0.0000    0.0000    0.0000 H   0  0  0  0  0  0  0  0  0  0  0  0
    0.0000    0.0000    0.0000 H   0  0  0  0  0  0  0  0  0  0  0  0
    0.0000    0.0000    0.0000 H   0  0  0  0  0  0  0  0  0  0  0  0
    0.0000    0.0000    0.0000 H   0  0  0  0  0  0  0  0  0  0  0  0
    0.0000    0.0000    0.0000 H   0  0  0  0  0  0  0  0  0  0  0  0
    0.0000    0.0000    0.0000 H   0  0  0  0  0  0  0  0  0  0  0  0
   10.9093    5.2097   10.5294 N   0  0  0  0  0  0  0  0  0  0  0  0
   11.2149    5.6536    9.2122 C   0  0  0  0  0  0  0  0  0  0  0  0
   10.2771    4.8736    8.2924 C   0  0  0  0  0  0  0  0  0  0  0  0
    8.8411    5.2703    8.5302 C   0  0  0  0  0  0  0  0  0  0  0  0
    8.3373    6.2289    7.6433 N   0  0  0  0  0  0  0  0  0  0  0  0
    8.8811    7.4834    7.5131 C   0  0  0  0  0  0  0  0  0  0  0  0
    7.8762    8.2120    6.6057 C   0  0  0  0  0  0  0  0  0  0  0  0
    6.5815    7.6287    7.1569 C   0  0  0  0  0  0  0  0  0  0  0  0
    6.9807    6.1612    7.2768 C   0  0  0  0  0  0  0  0  0  0  0  0
    8.5507    5.6721    9.9383 C   0  0  0  0  0  0  0  0  0  0  0  0
    9.5728    5.3958   10.9596 C   0  0  0  0  0  0  0  0  0  0  0  0
   11.0886    6.7475    9.0965 H   0  0  0  0  0  0  0  0  0  0  0  0
   12.2335    5.3392    8.9507 H   0  0  0  0  0  0  0  0  0  0  0  0
   10.4460    3.8034    8.5374 H   0  0  0  0  0  0  0  0  0  0  0  0
   10.5716    4.9988    7.2384 H   0  0  0  0  0  0  0  0  0  0  0  0
    8.2623    4.3156    8.3383 H   0  0  0  0  0  0  0  0  0  0  0  0
    8.8485    8.0403    8.4757 H   0  0  0  0  0  0  0  0  0  0  0  0
    9.9043    7.5900    7.1261 H   0  0  0  0  0  0  0  0  0  0  0  0
    8.0555    7.8197    5.5830 H   0  0  0  0  0  0  0  0  0  0  0  0
    7.9395    9.2915    6.6989 H   0  0  0  0  0  0  0  0  0  0  0  0
    6.3974    8.0806    8.1486 H   0  0  0  0  0  0  0  0  0  0  0  0
    5.7388    7.7708    6.4594 H   0  0  0  0  0  0  0  0  0  0  0  0
    6.3889    5.6449    8.0526 H   0  0  0  0  0  0  0  0  0  0  0  0
    6.7713    5.6728    6.2975 H   0  0  0  0  0  0  0  0  0  0  0  0
    8.3079    6.7770    9.9828 H   0  0  0  0  0  0  0  0  0  0  0  0
    7.5767    5.2109   10.2903 H   0  0  0  0  0  0  0  0  0  0  0  0
    9.3061    4.4745   11.5634 H   0  0  0  0  0  0  0  0  0  0  0  0
    9.5899    6.2081   11.7493 H   0  0  0  0  0  0  0  0  0  0  0  0
  1  3  2  0
  1  4  1  0
  2  4  1  0
  1  5  1  0
  2  6  1  0
  5  6  1  0
  6  7  2  3
  5  8  1  0
  4 10  1  0
 10 11  2  0
 11 12  1  0
 12 13  2  0
 13 14  1  0
 10 15  1  0
 14 15  2  0
  9 16  2  0
  9 17  1  0
 14 18  1  0
 17 18  2  0
 18 19  1  0
 16 20  1  0
 19 20  2  0
  2 21  1  0
  7 22  1  0
  8 23  1  0
  8 24  1  0
  8 25  1  0
 11 26  1  0
 12 27  1  0
 13 28  1  0
 15 29  1  0
 16 30  1  0
 17 31  1  0
 19 32  1  0
 20 33  1  0
 34 35  1  0
 35 36  1  0
 36 37  1  0
 37 38  1  0
 38 39  1  0
 39 40  1  0
 40 41  1  0
 41 42  1  0
 37 43  1  0
 43 44  1  0
 44 34  1  0
 42 38  1  0
 35 45  1  0
 35 46  1  0
 36 47  1  0
 36 48  1  0
 37 49  1  0
 39 50  1  0
 39 51  1  0
 40 52  1  0
 40 53  1  0
 41 54  1  0
 41 55  1  0
 42 56  1  0
 42 57  1  0
 43 58  1  0
 43 59  1  0
 44 60  1  0
 44 61  1  0
  4 34  1  6
M  END
>  <attachment_point>  (385) 
21

>  <score>  (385) 
<NA>

$$$$
4djw
     RDKit          3D

 49 52  0  0  0  0  0  0  0  0999 V2000
   22.4950   11.8750   22.5810 C   0  0  0  0  0  0  0  0  0  0  0  0
   22.5380    9.4930   22.4640 N   0  0  0  0  0  0  0  0  0  0  0  0
   22.3600   13.0630   22.3480 O   0  0  0  0  0  0  0  0  0  0  0  0
   22.3390   10.6680   21.5610 C   0  0  2  0  0  0  0  0  0  0  0  0
   22.7860   11.3350   23.8120 N   0  0  0  0  0  0  0  0  0  0  0  0
   22.7800    9.9140   23.7010 C   0  0  0  0  0  0  0  0  0  0  0  0
   22.9970    9.1110   24.7490 N   0  0  0  0  0  0  0  0  0  0  0  0
   23.0220   12.1410   25.0180 C   0  0  0  0  0  0  0  0  0  0  0  0
   29.1260    9.8230   21.7090 N   0  0  0  0  0  0  0  0  0  0  0  0
   23.4880   10.6920   20.5300 C   0  0  0  0  0  0  0  0  0  0  0  0
   23.2110   10.7890   19.1730 C   0  0  0  0  0  0  0  0  0  0  0  0
   24.2350   10.8650   18.2430 C   0  0  0  0  0  0  0  0  0  0  0  0
   25.5500   10.8410   18.6560 C   0  0  0  0  0  0  0  0  0  0  0  0
   25.8710   10.7460   20.0070 C   0  0  0  0  0  0  0  0  0  0  0  0
   24.8260   10.6610   20.9430 C   0  0  0  0  0  0  0  0  0  0  0  0
   29.8540   10.9130   21.4510 C   0  0  0  0  0  0  0  0  0  0  0  0
   27.8830    9.7800   21.2080 C   0  0  0  0  0  0  0  0  0  0  0  0
   27.3000   10.8010   20.4650 C   0  0  0  0  0  0  0  0  0  0  0  0
   28.0930   11.9190   20.2200 C   0  0  0  0  0  0  0  0  0  0  0  0
   29.3850   11.9780   20.7130 C   0  0  0  0  0  0  0  0  0  0  0  0
    0.0000    0.0000    0.0000 H   0  0  0  0  0  0  0  0  0  0  0  0
    0.0000    0.0000    0.0000 H   0  0  0  0  0  0  0  0  0  0  0  0
    0.0000    0.0000    0.0000 H   0  0  0  0  0  0  0  0  0  0  0  0
    0.0000    0.0000    0.0000 H   0  0  0  0  0  0  0  0  0  0  0  0
    0.0000    0.0000    0.0000 H   0  0  0  0  0  0  0  0  0  0  0  0
    0.0000    0.0000    0.0000 H   0  0  0  0  0  0  0  0  0  0  0  0
    0.0000    0.0000    0.0000 H   0  0  0  0  0  0  0  0  0  0  0  0
    0.0000    0.0000    0.0000 H   0  0  0  0  0  0  0  0  0  0  0  0
    0.0000    0.0000    0.0000 H   0  0  0  0  0  0  0  0  0  0  0  0
    0.0000    0.0000    0.0000 H   0  0  0  0  0  0  0  0  0  0  0  0
    0.0000    0.0000    0.0000 H   0  0  0  0  0  0  0  0  0  0  0  0
    0.0000    0.0000    0.0000 H   0  0  0  0  0  0  0  0  0  0  0  0
    0.0000    0.0000    0.0000 H   0  0  0  0  0  0  0  0  0  0  0  0
   10.8633    5.1878   10.4850 C   0  0  0  0  0  0  0  0  0  0  0  0
    9.5237    5.2008   10.8172 C   0  0  0  0  0  0  0  0  0  0  0  0
    8.6365    4.7374    9.8622 C   0  0  0  0  0  0  0  0  0  0  0  0
    9.0823    4.2866    8.6401 C   0  0  0  0  0  0  0  0  0  0  0  0
   10.4278    4.2766    8.3142 C   0  0  0  0  0  0  0  0  0  0  0  0
   10.9283    3.7971    7.0085 C   0  0  0  0  0  0  0  0  0  0  0  0
   11.2284    2.3954    7.0010 N   0  0  0  0  0  0  0  0  0  0  0  0
   11.3137    4.7380    9.2647 C   0  0  0  0  0  0  0  0  0  0  0  0
    9.1733    5.5585   11.7862 H   0  0  0  0  0  0  0  0  0  0  0  0
    7.5693    4.7359   10.0972 H   0  0  0  0  0  0  0  0  0  0  0  0
    8.3837    3.9208    7.8858 H   0  0  0  0  0  0  0  0  0  0  0  0
   11.7941    4.3419    6.6289 H   0  0  0  0  0  0  0  0  0  0  0  0
   10.0986    3.9562    6.2626 H   0  0  0  0  0  0  0  0  0  0  0  0
   11.0245    1.9540    6.0757 H   0  0  0  0  0  0  0  0  0  0  0  0
   12.2495    2.1932    7.2092 H   0  0  0  0  0  0  0  0  0  0  0  0
   12.3802    4.7362    9.0211 H   0  0  0  0  0  0  0  0  0  0  0  0
  1  3  2  0
  1  4  1  0
  2  4  1  0
  1  5  1  0
  2  6  1  0
  5  6  1  0
  6  7  2  3
  5  8  1  0
  4 10  1  6
 10 11  2  0
 11 12  1  0
 12 13  2  0
 13 14  1  0
 10 15  1  0
 14 15  2  0
  9 16  2  0
  9 17  1  0
 14 18  1  0
 17 18  2  0
 18 19  1  0
 16 20  1  0
 19 20  2  0
  2 21  1  0
  7 22  1  0
  8 23  1  0
  8 24  1  0
  8 25  1  0
 11 26  1  0
 12 27  1  0
 13 28  1  0
 15 29  1  0
 16 30  1  0
 17 31  1  0
 19 32  1  0
 20 33  1  0
 34 35  2  0
 35 36  1  0
 36 37  2  0
 37 38  1  0
 38 39  1  0
 39 40  1  0
 38 41  2  0
 41 34  1  0
 35 42  1  0
 36 43  1  0
 37 44  1  0
 39 45  1  0
 39 46  1  0
 40 47  1  0
 40 48  1  0
 41 49  1  0
  4 34  1  0
M  END
>  <attachment_point>  (386) 
21

>  <score>  (386) 
<NA>

$$$$
4djw
     RDKit          3D

 45 48  0  0  0  0  0  0  0  0999 V2000
   22.4950   11.8750   22.5810 C   0  0  0  0  0  0  0  0  0  0  0  0
   22.5380    9.4930   22.4640 N   0  0  0  0  0  0  0  0  0  0  0  0
   22.3600   13.0630   22.3480 O   0  0  0  0  0  0  0  0  0  0  0  0
   22.3390   10.6680   21.5610 C   0  0  2  0  0  0  0  0  0  0  0  0
   22.7860   11.3350   23.8120 N   0  0  0  0  0  0  0  0  0  0  0  0
   22.7800    9.9140   23.7010 C   0  0  0  0  0  0  0  0  0  0  0  0
   22.9970    9.1110   24.7490 N   0  0  0  0  0  0  0  0  0  0  0  0
   23.0220   12.1410   25.0180 C   0  0  0  0  0  0  0  0  0  0  0  0
   29.1260    9.8230   21.7090 N   0  0  0  0  0  0  0  0  0  0  0  0
   23.4880   10.6920   20.5300 C   0  0  0  0  0  0  0  0  0  0  0  0
   23.2110   10.7890   19.1730 C   0  0  0  0  0  0  0  0  0  0  0  0
   24.2350   10.8650   18.2430 C   0  0  0  0  0  0  0  0  0  0  0  0
   25.5500   10.8410   18.6560 C   0  0  0  0  0  0  0  0  0  0  0  0
   25.8710   10.7460   20.0070 C   0  0  0  0  0  0  0  0  0  0  0  0
   24.8260   10.6610   20.9430 C   0  0  0  0  0  0  0  0  0  0  0  0
   29.8540   10.9130   21.4510 C   0  0  0  0  0  0  0  0  0  0  0  0
   27.8830    9.7800   21.2080 C   0  0  0  0  0  0  0  0  0  0  0  0
   27.3000   10.8010   20.4650 C   0  0  0  0  0  0  0  0  0  0  0  0
   28.0930   11.9190   20.2200 C   0  0  0  0  0  0  0  0  0  0  0  0
   29.3850   11.9780   20.7130 C   0  0  0  0  0  0  0  0  0  0  0  0
    0.0000    0.0000    0.0000 H   0  0  0  0  0  0  0  0  0  0  0  0
    0.0000    0.0000    0.0000 H   0  0  0  0  0  0  0  0  0  0  0  0
    0.0000    0.0000    0.0000 H   0  0  0  0  0  0  0  0  0  0  0  0
    0.0000    0.0000    0.0000 H   0  0  0  0  0  0  0  0  0  0  0  0
    0.0000    0.0000    0.0000 H   0  0  0  0  0  0  0  0  0  0  0  0
    0.0000    0.0000    0.0000 H   0  0  0  0  0  0  0  0  0  0  0  0
    0.0000    0.0000    0.0000 H   0  0  0  0  0  0  0  0  0  0  0  0
    0.0000    0.0000    0.0000 H   0  0  0  0  0  0  0  0  0  0  0  0
    0.0000    0.0000    0.0000 H   0  0  0  0  0  0  0  0  0  0  0  0
    0.0000    0.0000    0.0000 H   0  0  0  0  0  0  0  0  0  0  0  0
    0.0000    0.0000    0.0000 H   0  0  0  0  0  0  0  0  0  0  0  0
    0.0000    0.0000    0.0000 H   0  0  0  0  0  0  0  0  0  0  0  0
    0.0000    0.0000    0.0000 H   0  0  0  0  0  0  0  0  0  0  0  0
   10.8630    5.1876   10.4847 C   0  0  0  0  0  0  0  0  0  0  0  0
   11.2373    4.1896    9.6655 N   0  0  0  0  0  0  0  0  0  0  0  0
   10.3499    3.7176    8.7606 C   0  0  0  0  0  0  0  0  0  0  0  0
    9.0778    4.2746    8.7010 C   0  0  0  0  0  0  0  0  0  0  0  0
    8.7334    5.3027    9.5650 C   0  0  0  0  0  0  0  0  0  0  0  0
    7.3696    5.8906    9.4919 C   0  0  0  0  0  0  0  0  0  0  0  0
    6.8030    5.7003    8.2477 F   0  0  0  0  0  0  0  0  0  0  0  0
    6.5279    5.2855   10.4188 F   0  0  0  0  0  0  0  0  0  0  0  0
    7.4369    7.2484    9.7731 F   0  0  0  0  0  0  0  0  0  0  0  0
    9.6427    5.7521   10.4578 N   0  0  0  0  0  0  0  0  0  0  0  0
   10.5901    2.9154    8.0727 H   0  0  0  0  0  0  0  0  0  0  0  0
    8.3257    3.9395    7.9992 H   0  0  0  0  0  0  0  0  0  0  0  0
  1  3  2  0
  1  4  1  0
  2  4  1  0
  1  5  1  0
  2  6  1  0
  5  6  1  0
  6  7  2  3
  5  8  1  0
  4 10  1  6
 10 11  2  0
 11 12  1  0
 12 13  2  0
 13 14  1  0
 10 15  1  0
 14 15  2  0
  9 16  2  0
  9 17  1  0
 14 18  1  0
 17 18  2  0
 18 19  1  0
 16 20  1  0
 19 20  2  0
  2 21  1  0
  7 22  1  0
  8 23  1  0
  8 24  1  0
  8 25  1  0
 11 26  1  0
 12 27  1  0
 13 28  1  0
 15 29  1  0
 16 30  1  0
 17 31  1  0
 19 32  1  0
 20 33  1  0
 34 35  2  0
 35 36  1  0
 36 37  2  0
 37 38  1  0
 38 39  1  0
 39 40  1  0
 39 41  1  0
 39 42  1  0
 38 43  2  0
 43 34  1  0
 36 44  1  0
 37 45  1  0
  4 34  1  0
M  END
>  <attachment_point>  (387) 
21

>  <score>  (387) 
<NA>

$$$$
4djw
     RDKit          3D

 51 54  0  0  0  0  0  0  0  0999 V2000
   22.4950   11.8750   22.5810 C   0  0  0  0  0  0  0  0  0  0  0  0
   22.5380    9.4930   22.4640 N   0  0  0  0  0  0  0  0  0  0  0  0
   22.3600   13.0630   22.3480 O   0  0  0  0  0  0  0  0  0  0  0  0
   22.3390   10.6680   21.5610 C   0  0  2  0  0  0  0  0  0  0  0  0
   22.7860   11.3350   23.8120 N   0  0  0  0  0  0  0  0  0  0  0  0
   22.7800    9.9140   23.7010 C   0  0  0  0  0  0  0  0  0  0  0  0
   22.9970    9.1110   24.7490 N   0  0  0  0  0  0  0  0  0  0  0  0
   23.0220   12.1410   25.0180 C   0  0  0  0  0  0  0  0  0  0  0  0
   29.1260    9.8230   21.7090 N   0  0  0  0  0  0  0  0  0  0  0  0
   23.4880   10.6920   20.5300 C   0  0  0  0  0  0  0  0  0  0  0  0
   23.2110   10.7890   19.1730 C   0  0  0  0  0  0  0  0  0  0  0  0
   24.2350   10.8650   18.2430 C   0  0  0  0  0  0  0  0  0  0  0  0
   25.5500   10.8410   18.6560 C   0  0  0  0  0  0  0  0  0  0  0  0
   25.8710   10.7460   20.0070 C   0  0  0  0  0  0  0  0  0  0  0  0
   24.8260   10.6610   20.9430 C   0  0  0  0  0  0  0  0  0  0  0  0
   29.8540   10.9130   21.4510 C   0  0  0  0  0  0  0  0  0  0  0  0
   27.8830    9.7800   21.2080 C   0  0  0  0  0  0  0  0  0  0  0  0
   27.3000   10.8010   20.4650 C   0  0  0  0  0  0  0  0  0  0  0  0
   28.0930   11.9190   20.2200 C   0  0  0  0  0  0  0  0  0  0  0  0
   29.3850   11.9780   20.7130 C   0  0  0  0  0  0  0  0  0  0  0  0
    0.0000    0.0000    0.0000 H   0  0  0  0  0  0  0  0  0  0  0  0
    0.0000    0.0000    0.0000 H   0  0  0  0  0  0  0  0  0  0  0  0
    0.0000    0.0000    0.0000 H   0  0  0  0  0  0  0  0  0  0  0  0
    0.0000    0.0000    0.0000 H   0  0  0  0  0  0  0  0  0  0  0  0
    0.0000    0.0000    0.0000 H   0  0  0  0  0  0  0  0  0  0  0  0
    0.0000    0.0000    0.0000 H   0  0  0  0  0  0  0  0  0  0  0  0
    0.0000    0.0000    0.0000 H   0  0  0  0  0  0  0  0  0  0  0  0
    0.0000    0.0000    0.0000 H   0  0  0  0  0  0  0  0  0  0  0  0
    0.0000    0.0000    0.0000 H   0  0  0  0  0  0  0  0  0  0  0  0
    0.0000    0.0000    0.0000 H   0  0  0  0  0  0  0  0  0  0  0  0
    0.0000    0.0000    0.0000 H   0  0  0  0  0  0  0  0  0  0  0  0
    0.0000    0.0000    0.0000 H   0  0  0  0  0  0  0  0  0  0  0  0
    0.0000    0.0000    0.0000 H   0  0  0  0  0  0  0  0  0  0  0  0
   10.8716    5.1917   10.4930 C   0  0  0  0  0  0  0  0  0  0  0  0
    9.6355    5.9953   10.5804 C   0  0  0  0  0  0  0  0  0  0  0  0
    8.6256    5.6176   11.4419 C   0  0  0  0  0  0  0  0  0  0  0  0
    7.4997    6.4143   11.4721 C   0  0  0  0  0  0  0  0  0  0  0  0
    7.3728    7.5413   10.6835 C   0  0  0  0  0  0  0  0  0  0  0  0
    8.3810    7.9205    9.8219 C   0  0  0  0  0  0  0  0  0  0  0  0
    8.2352    9.0561    9.0375 O   0  0  0  0  0  0  0  0  0  0  0  0
    9.3080    9.3863    8.1766 C   0  0  0  0  0  0  0  0  0  0  0  0
    9.5097    7.1288    9.7862 C   0  0  0  0  0  0  0  0  0  0  0  0
   10.6522    4.1100   10.6455 H   0  0  0  0  0  0  0  0  0  0  0  0
   11.3309    5.3096    9.4833 H   0  0  0  0  0  0  0  0  0  0  0  0
    8.7059    4.7299   12.0741 H   0  0  0  0  0  0  0  0  0  0  0  0
    6.6989    6.1361   12.1388 H   0  0  0  0  0  0  0  0  0  0  0  0
    6.4760    8.1733   10.7095 H   0  0  0  0  0  0  0  0  0  0  0  0
   10.2555    9.5439    8.7166 H   0  0  0  0  0  0  0  0  0  0  0  0
    9.0379   10.2180    7.4969 H   0  0  0  0  0  0  0  0  0  0  0  0
    9.4789    8.4697    7.5392 H   0  0  0  0  0  0  0  0  0  0  0  0
   10.2904    7.4419    9.1043 H   0  0  0  0  0  0  0  0  0  0  0  0
  1  3  2  0
  1  4  1  0
  2  4  1  0
  1  5  1  0
  2  6  1  0
  5  6  1  0
  6  7  2  3
  5  8  1  0
  4 10  1  0
 10 11  2  0
 11 12  1  0
 12 13  2  0
 13 14  1  0
 10 15  1  0
 14 15  2  0
  9 16  2  0
  9 17  1  0
 14 18  1  0
 17 18  2  0
 18 19  1  0
 16 20  1  0
 19 20  2  0
  2 21  1  0
  7 22  1  0
  8 23  1  0
  8 24  1  0
  8 25  1  0
 11 26  1  0
 12 27  1  0
 13 28  1  0
 15 29  1  0
 16 30  1  0
 17 31  1  0
 19 32  1  0
 20 33  1  0
 34 35  1  0
 35 36  2  0
 36 37  1  0
 37 38  2  0
 38 39  1  0
 39 40  1  0
 40 41  1  0
 39 42  2  0
 42 35  1  0
 34 43  1  0
 34 44  1  0
 36 45  1  0
 37 46  1  0
 38 47  1  0
 41 48  1  0
 41 49  1  0
 41 50  1  0
 42 51  1  0
  4 34  1  6
M  END
>  <attachment_point>  (388) 
21

>  <score>  (388) 
<NA>

$$$$
4djw
     RDKit          3D

 50 52  0  0  0  0  0  0  0  0999 V2000
   22.4950   11.8750   22.5810 C   0  0  0  0  0  0  0  0  0  0  0  0
   22.5380    9.4930   22.4640 N   0  0  0  0  0  0  0  0  0  0  0  0
   22.3600   13.0630   22.3480 O   0  0  0  0  0  0  0  0  0  0  0  0
   22.3390   10.6680   21.5610 C   0  0  2  0  0  0  0  0  0  0  0  0
   22.7860   11.3350   23.8120 N   0  0  0  0  0  0  0  0  0  0  0  0
   22.7800    9.9140   23.7010 C   0  0  0  0  0  0  0  0  0  0  0  0
   22.9970    9.1110   24.7490 N   0  0  0  0  0  0  0  0  0  0  0  0
   23.0220   12.1410   25.0180 C   0  0  0  0  0  0  0  0  0  0  0  0
   29.1260    9.8230   21.7090 N   0  0  0  0  0  0  0  0  0  0  0  0
   23.4880   10.6920   20.5300 C   0  0  0  0  0  0  0  0  0  0  0  0
   23.2110   10.7890   19.1730 C   0  0  0  0  0  0  0  0  0  0  0  0
   24.2350   10.8650   18.2430 C   0  0  0  0  0  0  0  0  0  0  0  0
   25.5500   10.8410   18.6560 C   0  0  0  0  0  0  0  0  0  0  0  0
   25.8710   10.7460   20.0070 C   0  0  0  0  0  0  0  0  0  0  0  0
   24.8260   10.6610   20.9430 C   0  0  0  0  0  0  0  0  0  0  0  0
   29.8540   10.9130   21.4510 C   0  0  0  0  0  0  0  0  0  0  0  0
   27.8830    9.7800   21.2080 C   0  0  0  0  0  0  0  0  0  0  0  0
   27.3000   10.8010   20.4650 C   0  0  0  0  0  0  0  0  0  0  0  0
   28.0930   11.9190   20.2200 C   0  0  0  0  0  0  0  0  0  0  0  0
   29.3850   11.9780   20.7130 C   0  0  0  0  0  0  0  0  0  0  0  0
    0.0000    0.0000    0.0000 H   0  0  0  0  0  0  0  0  0  0  0  0
    0.0000    0.0000    0.0000 H   0  0  0  0  0  0  0  0  0  0  0  0
    0.0000    0.0000    0.0000 H   0  0  0  0  0  0  0  0  0  0  0  0
    0.0000    0.0000    0.0000 H   0  0  0  0  0  0  0  0  0  0  0  0
    0.0000    0.0000    0.0000 H   0  0  0  0  0  0  0  0  0  0  0  0
    0.0000    0.0000    0.0000 H   0  0  0  0  0  0  0  0  0  0  0  0
    0.0000    0.0000    0.0000 H   0  0  0  0  0  0  0  0  0  0  0  0
    0.0000    0.0000    0.0000 H   0  0  0  0  0  0  0  0  0  0  0  0
    0.0000    0.0000    0.0000 H   0  0  0  0  0  0  0  0  0  0  0  0
    0.0000    0.0000    0.0000 H   0  0  0  0  0  0  0  0  0  0  0  0
    0.0000    0.0000    0.0000 H   0  0  0  0  0  0  0  0  0  0  0  0
    0.0000    0.0000    0.0000 H   0  0  0  0  0  0  0  0  0  0  0  0
    0.0000    0.0000    0.0000 H   0  0  0  0  0  0  0  0  0  0  0  0
   10.8505    5.1816   10.4726 C   0  0  0  0  0  0  0  0  0  0  0  0
   10.2858    4.0907   10.6676 O   0  0  0  0  0  0  0  0  0  0  0  0
   10.5358    5.9399    9.3502 N   0  0  0  0  0  0  0  0  0  0  0  0
    9.5790    5.5872    8.3268 C   0  0  0  0  0  0  0  0  0  0  0  0
   10.0477    4.2958    7.6970 C   0  0  0  0  0  0  0  0  0  0  0  0
    9.1142    3.8330    6.6013 C   0  0  0  0  0  0  0  0  0  0  0  0
    7.7192    3.5854    7.0939 C   0  0  0  0  0  0  0  0  0  0  0  0
   11.0372    6.8630    9.2231 H   0  0  0  0  0  0  0  0  0  0  0  0
    8.5704    5.4677    8.7794 H   0  0  0  0  0  0  0  0  0  0  0  0
    9.5130    6.3692    7.5351 H   0  0  0  0  0  0  0  0  0  0  0  0
   11.0220    4.5382    7.1892 H   0  0  0  0  0  0  0  0  0  0  0  0
   10.1902    3.5201    8.4464 H   0  0  0  0  0  0  0  0  0  0  0  0
    9.5184    2.8749    6.2135 H   0  0  0  0  0  0  0  0  0  0  0  0
    9.1664    4.5645    5.7657 H   0  0  0  0  0  0  0  0  0  0  0  0
    7.4068    2.5137    6.9459 H   0  0  0  0  0  0  0  0  0  0  0  0
    7.5775    3.7936    8.1680 H   0  0  0  0  0  0  0  0  0  0  0  0
    7.0045    4.1755    6.4496 H   0  0  0  0  0  0  0  0  0  0  0  0
  1  3  2  0
  1  4  1  0
  2  4  1  0
  1  5  1  0
  2  6  1  0
  5  6  1  0
  6  7  2  3
  5  8  1  0
  4 10  1  0
 10 11  2  0
 11 12  1  0
 12 13  2  0
 13 14  1  0
 10 15  1  0
 14 15  2  0
  9 16  2  0
  9 17  1  0
 14 18  1  0
 17 18  2  0
 18 19  1  0
 16 20  1  0
 19 20  2  0
  2 21  1  0
  7 22  1  0
  8 23  1  0
  8 24  1  0
  8 25  1  0
 11 26  1  0
 12 27  1  0
 13 28  1  0
 15 29  1  0
 16 30  1  0
 17 31  1  0
 19 32  1  0
 20 33  1  0
 34 35  2  0
 34 36  1  0
 36 37  1  0
 37 38  1  0
 38 39  1  0
 39 40  1  0
 36 41  1  0
 37 42  1  0
 37 43  1  0
 38 44  1  0
 38 45  1  0
 39 46  1  0
 39 47  1  0
 40 48  1  0
 40 49  1  0
 40 50  1  0
  4 34  1  6
M  END
>  <attachment_point>  (389) 
21

>  <score>  (389) 
<NA>

$$$$
4djw
     RDKit          3D

 50 53  0  0  0  0  0  0  0  0999 V2000
   22.4950   11.8750   22.5810 C   0  0  0  0  0  0  0  0  0  0  0  0
   22.5380    9.4930   22.4640 N   0  0  0  0  0  0  0  0  0  0  0  0
   22.3600   13.0630   22.3480 O   0  0  0  0  0  0  0  0  0  0  0  0
   22.3390   10.6680   21.5610 C   0  0  2  0  0  0  0  0  0  0  0  0
   22.7860   11.3350   23.8120 N   0  0  0  0  0  0  0  0  0  0  0  0
   22.7800    9.9140   23.7010 C   0  0  0  0  0  0  0  0  0  0  0  0
   22.9970    9.1110   24.7490 N   0  0  0  0  0  0  0  0  0  0  0  0
   23.0220   12.1410   25.0180 C   0  0  0  0  0  0  0  0  0  0  0  0
   29.1260    9.8230   21.7090 N   0  0  0  0  0  0  0  0  0  0  0  0
   23.4880   10.6920   20.5300 C   0  0  0  0  0  0  0  0  0  0  0  0
   23.2110   10.7890   19.1730 C   0  0  0  0  0  0  0  0  0  0  0  0
   24.2350   10.8650   18.2430 C   0  0  0  0  0  0  0  0  0  0  0  0
   25.5500   10.8410   18.6560 C   0  0  0  0  0  0  0  0  0  0  0  0
   25.8710   10.7460   20.0070 C   0  0  0  0  0  0  0  0  0  0  0  0
   24.8260   10.6610   20.9430 C   0  0  0  0  0  0  0  0  0  0  0  0
   29.8540   10.9130   21.4510 C   0  0  0  0  0  0  0  0  0  0  0  0
   27.8830    9.7800   21.2080 C   0  0  0  0  0  0  0  0  0  0  0  0
   27.3000   10.8010   20.4650 C   0  0  0  0  0  0  0  0  0  0  0  0
   28.0930   11.9190   20.2200 C   0  0  0  0  0  0  0  0  0  0  0  0
   29.3850   11.9780   20.7130 C   0  0  0  0  0  0  0  0  0  0  0  0
    0.0000    0.0000    0.0000 H   0  0  0  0  0  0  0  0  0  0  0  0
    0.0000    0.0000    0.0000 H   0  0  0  0  0  0  0  0  0  0  0  0
    0.0000    0.0000    0.0000 H   0  0  0  0  0  0  0  0  0  0  0  0
    0.0000    0.0000    0.0000 H   0  0  0  0  0  0  0  0  0  0  0  0
    0.0000    0.0000    0.0000 H   0  0  0  0  0  0  0  0  0  0  0  0
    0.0000    0.0000    0.0000 H   0  0  0  0  0  0  0  0  0  0  0  0
    0.0000    0.0000    0.0000 H   0  0  0  0  0  0  0  0  0  0  0  0
    0.0000    0.0000    0.0000 H   0  0  0  0  0  0  0  0  0  0  0  0
    0.0000    0.0000    0.0000 H   0  0  0  0  0  0  0  0  0  0  0  0
    0.0000    0.0000    0.0000 H   0  0  0  0  0  0  0  0  0  0  0  0
    0.0000    0.0000    0.0000 H   0  0  0  0  0  0  0  0  0  0  0  0
    0.0000    0.0000    0.0000 H   0  0  0  0  0  0  0  0  0  0  0  0
    0.0000    0.0000    0.0000 H   0  0  0  0  0  0  0  0  0  0  0  0
   10.8729    5.1924   10.4943 C   0  0  1  0  0  0  0  0  0  0  0  0
   10.9696    3.6947   10.4781 C   0  0  0  0  0  0  0  0  0  0  0  0
    9.5344    5.6938   10.8572 C   0  0  0  0  0  0  0  0  0  0  0  0
    8.7981    6.5185   10.0365 C   0  0  0  0  0  0  0  0  0  0  0  0
    7.5332    6.9572   10.4449 C   0  0  0  0  0  0  0  0  0  0  0  0
    6.9950    6.5844   11.6583 C   0  0  0  0  0  0  0  0  0  0  0  0
    7.7455    5.7582   12.4681 C   0  0  0  0  0  0  0  0  0  0  0  0
    9.0013    5.3225   12.0631 C   0  0  0  0  0  0  0  0  0  0  0  0
   11.1982    5.5616    9.4935 H   0  0  0  0  0  0  0  0  0  0  0  0
   12.0525    3.4367   10.5578 H   0  0  0  0  0  0  0  0  0  0  0  0
   10.4810    3.2246   11.3579 H   0  0  0  0  0  0  0  0  0  0  0  0
   10.5751    3.2352    9.5593 H   0  0  0  0  0  0  0  0  0  0  0  0
    9.2208    6.8074    9.0907 H   0  0  0  0  0  0  0  0  0  0  0  0
    6.9730    7.6014    9.7893 H   0  0  0  0  0  0  0  0  0  0  0  0
    5.9981    6.9348   11.9715 H   0  0  0  0  0  0  0  0  0  0  0  0
    7.3202    5.4638   13.4267 H   0  0  0  0  0  0  0  0  0  0  0  0
    9.5574    4.6819   12.7157 H   0  0  0  0  0  0  0  0  0  0  0  0
  1  3  2  0
  1  4  1  0
  2  4  1  0
  1  5  1  0
  2  6  1  0
  5  6  1  0
  6  7  2  3
  5  8  1  0
  4 10  1  6
 10 11  2  0
 11 12  1  0
 12 13  2  0
 13 14  1  0
 10 15  1  0
 14 15  2  0
  9 16  2  0
  9 17  1  0
 14 18  1  0
 17 18  2  0
 18 19  1  0
 16 20  1  0
 19 20  2  0
  2 21  1  0
  7 22  1  0
  8 23  1  0
  8 24  1  0
  8 25  1  0
 11 26  1  0
 12 27  1  0
 13 28  1  0
 15 29  1  0
 16 30  1  0
 17 31  1  0
 19 32  1  0
 20 33  1  0
 34 35  1  0
 34 36  1  0
 36 37  2  0
 37 38  1  0
 38 39  2  0
 39 40  1  0
 40 41  2  0
 41 36  1  0
 34 42  1  1
 35 43  1  0
 35 44  1  0
 35 45  1  0
 37 46  1  0
 38 47  1  0
 39 48  1  0
 40 49  1  0
 41 50  1  0
  4 34  1  0
M  END
>  <attachment_point>  (390) 
21

>  <score>  (390) 
<NA>

$$$$
4djw
     RDKit          3D

 41 43  0  0  0  0  0  0  0  0999 V2000
   22.4950   11.8750   22.5810 C   0  0  0  0  0  0  0  0  0  0  0  0
   22.5380    9.4930   22.4640 N   0  0  0  0  0  0  0  0  0  0  0  0
   22.3600   13.0630   22.3480 O   0  0  0  0  0  0  0  0  0  0  0  0
   22.3390   10.6680   21.5610 C   0  0  2  0  0  0  0  0  0  0  0  0
   22.7860   11.3350   23.8120 N   0  0  0  0  0  0  0  0  0  0  0  0
   22.7800    9.9140   23.7010 C   0  0  0  0  0  0  0  0  0  0  0  0
   22.9970    9.1110   24.7490 N   0  0  0  0  0  0  0  0  0  0  0  0
   23.0220   12.1410   25.0180 C   0  0  0  0  0  0  0  0  0  0  0  0
   29.1260    9.8230   21.7090 N   0  0  0  0  0  0  0  0  0  0  0  0
   23.4880   10.6920   20.5300 C   0  0  0  0  0  0  0  0  0  0  0  0
   23.2110   10.7890   19.1730 C   0  0  0  0  0  0  0  0  0  0  0  0
   24.2350   10.8650   18.2430 C   0  0  0  0  0  0  0  0  0  0  0  0
   25.5500   10.8410   18.6560 C   0  0  0  0  0  0  0  0  0  0  0  0
   25.8710   10.7460   20.0070 C   0  0  0  0  0  0  0  0  0  0  0  0
   24.8260   10.6610   20.9430 C   0  0  0  0  0  0  0  0  0  0  0  0
   29.8540   10.9130   21.4510 C   0  0  0  0  0  0  0  0  0  0  0  0
   27.8830    9.7800   21.2080 C   0  0  0  0  0  0  0  0  0  0  0  0
   27.3000   10.8010   20.4650 C   0  0  0  0  0  0  0  0  0  0  0  0
   28.0930   11.9190   20.2200 C   0  0  0  0  0  0  0  0  0  0  0  0
   29.3850   11.9780   20.7130 C   0  0  0  0  0  0  0  0  0  0  0  0
    0.0000    0.0000    0.0000 H   0  0  0  0  0  0  0  0  0  0  0  0
    0.0000    0.0000    0.0000 H   0  0  0  0  0  0  0  0  0  0  0  0
    0.0000    0.0000    0.0000 H   0  0  0  0  0  0  0  0  0  0  0  0
    0.0000    0.0000    0.0000 H   0  0  0  0  0  0  0  0  0  0  0  0
    0.0000    0.0000    0.0000 H   0  0  0  0  0  0  0  0  0  0  0  0
    0.0000    0.0000    0.0000 H   0  0  0  0  0  0  0  0  0  0  0  0
    0.0000    0.0000    0.0000 H   0  0  0  0  0  0  0  0  0  0  0  0
    0.0000    0.0000    0.0000 H   0  0  0  0  0  0  0  0  0  0  0  0
    0.0000    0.0000    0.0000 H   0  0  0  0  0  0  0  0  0  0  0  0
    0.0000    0.0000    0.0000 H   0  0  0  0  0  0  0  0  0  0  0  0
    0.0000    0.0000    0.0000 H   0  0  0  0  0  0  0  0  0  0  0  0
    0.0000    0.0000    0.0000 H   0  0  0  0  0  0  0  0  0  0  0  0
    0.0000    0.0000    0.0000 H   0  0  0  0  0  0  0  0  0  0  0  0
   10.9885    5.2476   10.6058 O   0  0  0  0  0  0  0  0  0  0  0  0
   10.3032    4.0222   10.5990 C   0  0  0  0  0  0  0  0  0  0  0  0
    9.3963    4.0386    9.3947 C   0  0  0  0  0  0  0  0  0  0  0  0
   10.0601    4.1781    8.2181 F   0  0  0  0  0  0  0  0  0  0  0  0
    8.6776    2.8577    9.3385 F   0  0  0  0  0  0  0  0  0  0  0  0
    8.5232    5.0993    9.5572 F   0  0  0  0  0  0  0  0  0  0  0  0
   11.0417    3.2122   10.5894 H   0  0  0  0  0  0  0  0  0  0  0  0
    9.6333    3.9979   11.4967 H   0  0  0  0  0  0  0  0  0  0  0  0
  1  3  2  0
  1  4  1  0
  2  4  1  0
  1  5  1  0
  2  6  1  0
  5  6  1  0
  6  7  2  3
  5  8  1  0
  4 10  1  0
 10 11  2  0
 11 12  1  0
 12 13  2  0
 13 14  1  0
 10 15  1  0
 14 15  2  0
  9 16  2  0
  9 17  1  0
 14 18  1  0
 17 18  2  0
 18 19  1  0
 16 20  1  0
 19 20  2  0
  2 21  1  0
  7 22  1  0
  8 23  1  0
  8 24  1  0
  8 25  1  0
 11 26  1  0
 12 27  1  0
 13 28  1  0
 15 29  1  0
 16 30  1  0
 17 31  1  0
 19 32  1  0
 20 33  1  0
 34 35  1  0
 35 36  1  0
 36 37  1  0
 36 38  1  0
 36 39  1  0
 35 40  1  0
 35 41  1  0
  4 34  1  6
M  END
>  <attachment_point>  (391) 
21

>  <score>  (391) 
<NA>

$$$$
4djw
     RDKit          3D

 43 46  0  0  0  0  0  0  0  0999 V2000
   22.4950   11.8750   22.5810 C   0  0  0  0  0  0  0  0  0  0  0  0
   22.5380    9.4930   22.4640 N   0  0  0  0  0  0  0  0  0  0  0  0
   22.3600   13.0630   22.3480 O   0  0  0  0  0  0  0  0  0  0  0  0
   22.3390   10.6680   21.5610 C   0  0  2  0  0  0  0  0  0  0  0  0
   22.7860   11.3350   23.8120 N   0  0  0  0  0  0  0  0  0  0  0  0
   22.7800    9.9140   23.7010 C   0  0  0  0  0  0  0  0  0  0  0  0
   22.9970    9.1110   24.7490 N   0  0  0  0  0  0  0  0  0  0  0  0
   23.0220   12.1410   25.0180 C   0  0  0  0  0  0  0  0  0  0  0  0
   29.1260    9.8230   21.7090 N   0  0  0  0  0  0  0  0  0  0  0  0
   23.4880   10.6920   20.5300 C   0  0  0  0  0  0  0  0  0  0  0  0
   23.2110   10.7890   19.1730 C   0  0  0  0  0  0  0  0  0  0  0  0
   24.2350   10.8650   18.2430 C   0  0  0  0  0  0  0  0  0  0  0  0
   25.5500   10.8410   18.6560 C   0  0  0  0  0  0  0  0  0  0  0  0
   25.8710   10.7460   20.0070 C   0  0  0  0  0  0  0  0  0  0  0  0
   24.8260   10.6610   20.9430 C   0  0  0  0  0  0  0  0  0  0  0  0
   29.8540   10.9130   21.4510 C   0  0  0  0  0  0  0  0  0  0  0  0
   27.8830    9.7800   21.2080 C   0  0  0  0  0  0  0  0  0  0  0  0
   27.3000   10.8010   20.4650 C   0  0  0  0  0  0  0  0  0  0  0  0
   28.0930   11.9190   20.2200 C   0  0  0  0  0  0  0  0  0  0  0  0
   29.3850   11.9780   20.7130 C   0  0  0  0  0  0  0  0  0  0  0  0
    0.0000    0.0000    0.0000 H   0  0  0  0  0  0  0  0  0  0  0  0
    0.0000    0.0000    0.0000 H   0  0  0  0  0  0  0  0  0  0  0  0
    0.0000    0.0000    0.0000 H   0  0  0  0  0  0  0  0  0  0  0  0
    0.0000    0.0000    0.0000 H   0  0  0  0  0  0  0  0  0  0  0  0
    0.0000    0.0000    0.0000 H   0  0  0  0  0  0  0  0  0  0  0  0
    0.0000    0.0000    0.0000 H   0  0  0  0  0  0  0  0  0  0  0  0
    0.0000    0.0000    0.0000 H   0  0  0  0  0  0  0  0  0  0  0  0
    0.0000    0.0000    0.0000 H   0  0  0  0  0  0  0  0  0  0  0  0
    0.0000    0.0000    0.0000 H   0  0  0  0  0  0  0  0  0  0  0  0
    0.0000    0.0000    0.0000 H   0  0  0  0  0  0  0  0  0  0  0  0
    0.0000    0.0000    0.0000 H   0  0  0  0  0  0  0  0  0  0  0  0
    0.0000    0.0000    0.0000 H   0  0  0  0  0  0  0  0  0  0  0  0
    0.0000    0.0000    0.0000 H   0  0  0  0  0  0  0  0  0  0  0  0
   10.8831    5.1972   10.5041 C   0  0  2  0  0  0  0  0  0  0  0  0
   11.3625    4.2207    9.4993 C   0  0  0  0  0  0  0  0  0  0  0  0
   10.9877    5.6541    9.1261 C   0  0  1  0  0  0  0  0  0  0  0  0
    9.8805    5.7112    8.2103 N   0  0  0  0  0  0  0  0  0  0  0  0
    9.9009    4.9942   11.0078 H   0  0  0  0  0  0  0  0  0  0  0  0
   10.6759    3.4051    9.2591 H   0  0  0  0  0  0  0  0  0  0  0  0
   12.4362    3.9995    9.3584 H   0  0  0  0  0  0  0  0  0  0  0  0
   11.8087    6.3585    8.8719 H   0  0  0  0  0  0  0  0  0  0  0  0
   10.2314    5.2888    7.2978 H   0  0  0  0  0  0  0  0  0  0  0  0
    9.5666    6.6582    7.9695 H   0  0  0  0  0  0  0  0  0  0  0  0
  1  3  2  0
  1  4  1  0
  2  4  1  0
  1  5  1  0
  2  6  1  0
  5  6  1  0
  6  7  2  3
  5  8  1  0
  4 10  1  6
 10 11  2  0
 11 12  1  0
 12 13  2  0
 13 14  1  0
 10 15  1  0
 14 15  2  0
  9 16  2  0
  9 17  1  0
 14 18  1  0
 17 18  2  0
 18 19  1  0
 16 20  1  0
 19 20  2  0
  2 21  1  0
  7 22  1  0
  8 23  1  0
  8 24  1  0
  8 25  1  0
 11 26  1  0
 12 27  1  0
 13 28  1  0
 15 29  1  0
 16 30  1  0
 17 31  1  0
 19 32  1  0
 20 33  1  0
 34 35  1  0
 35 36  1  0
 36 37  1  0
 36 34  1  0
 34 38  1  6
 35 39  1  0
 35 40  1  0
 36 41  1  1
 37 42  1  0
 37 43  1  0
  4 34  1  0
M  END
>  <attachment_point>  (392) 
21

>  <score>  (392) 
<NA>

$$$$
4djw
     RDKit          3D

 49 52  0  0  0  0  0  0  0  0999 V2000
   22.4950   11.8750   22.5810 C   0  0  0  0  0  0  0  0  0  0  0  0
   22.5380    9.4930   22.4640 N   0  0  0  0  0  0  0  0  0  0  0  0
   22.3600   13.0630   22.3480 O   0  0  0  0  0  0  0  0  0  0  0  0
   22.3390   10.6680   21.5610 C   0  0  2  0  0  0  0  0  0  0  0  0
   22.7860   11.3350   23.8120 N   0  0  0  0  0  0  0  0  0  0  0  0
   22.7800    9.9140   23.7010 C   0  0  0  0  0  0  0  0  0  0  0  0
   22.9970    9.1110   24.7490 N   0  0  0  0  0  0  0  0  0  0  0  0
   23.0220   12.1410   25.0180 C   0  0  0  0  0  0  0  0  0  0  0  0
   29.1260    9.8230   21.7090 N   0  0  0  0  0  0  0  0  0  0  0  0
   23.4880   10.6920   20.5300 C   0  0  0  0  0  0  0  0  0  0  0  0
   23.2110   10.7890   19.1730 C   0  0  0  0  0  0  0  0  0  0  0  0
   24.2350   10.8650   18.2430 C   0  0  0  0  0  0  0  0  0  0  0  0
   25.5500   10.8410   18.6560 C   0  0  0  0  0  0  0  0  0  0  0  0
   25.8710   10.7460   20.0070 C   0  0  0  0  0  0  0  0  0  0  0  0
   24.8260   10.6610   20.9430 C   0  0  0  0  0  0  0  0  0  0  0  0
   29.8540   10.9130   21.4510 C   0  0  0  0  0  0  0  0  0  0  0  0
   27.8830    9.7800   21.2080 C   0  0  0  0  0  0  0  0  0  0  0  0
   27.3000   10.8010   20.4650 C   0  0  0  0  0  0  0  0  0  0  0  0
   28.0930   11.9190   20.2200 C   0  0  0  0  0  0  0  0  0  0  0  0
   29.3850   11.9780   20.7130 C   0  0  0  0  0  0  0  0  0  0  0  0
    0.0000    0.0000    0.0000 H   0  0  0  0  0  0  0  0  0  0  0  0
    0.0000    0.0000    0.0000 H   0  0  0  0  0  0  0  0  0  0  0  0
    0.0000    0.0000    0.0000 H   0  0  0  0  0  0  0  0  0  0  0  0
    0.0000    0.0000    0.0000 H   0  0  0  0  0  0  0  0  0  0  0  0
    0.0000    0.0000    0.0000 H   0  0  0  0  0  0  0  0  0  0  0  0
    0.0000    0.0000    0.0000 H   0  0  0  0  0  0  0  0  0  0  0  0
    0.0000    0.0000    0.0000 H   0  0  0  0  0  0  0  0  0  0  0  0
    0.0000    0.0000    0.0000 H   0  0  0  0  0  0  0  0  0  0  0  0
    0.0000    0.0000    0.0000 H   0  0  0  0  0  0  0  0  0  0  0  0
    0.0000    0.0000    0.0000 H   0  0  0  0  0  0  0  0  0  0  0  0
    0.0000    0.0000    0.0000 H   0  0  0  0  0  0  0  0  0  0  0  0
    0.0000    0.0000    0.0000 H   0  0  0  0  0  0  0  0  0  0  0  0
    0.0000    0.0000    0.0000 H   0  0  0  0  0  0  0  0  0  0  0  0
   10.8858    5.1985   10.5066 N   0  0  0  0  0  0  0  0  0  0  0  0
    9.6133    4.7212   10.9244 C   0  0  0  0  0  0  0  0  0  0  0  0
    8.6795    4.2743   10.0122 C   0  0  0  0  0  0  0  0  0  0  0  0
    7.4377    3.8066   10.3958 C   0  0  0  0  0  0  0  0  0  0  0  0
    7.0675    3.7635   11.7243 C   0  0  0  0  0  0  0  0  0  0  0  0
    5.7280    3.2605   12.1561 C   0  0  0  0  0  0  0  0  0  0  0  0
    8.0023    4.2107   12.6344 C   0  0  0  0  0  0  0  0  0  0  0  0
    9.2430    4.6781   12.2531 C   0  0  0  0  0  0  0  0  0  0  0  0
   11.1972    5.2450    9.5199 H   0  0  0  0  0  0  0  0  0  0  0  0
    8.9733    4.3080    8.9522 H   0  0  0  0  0  0  0  0  0  0  0  0
    6.7138    3.4591    9.6753 H   0  0  0  0  0  0  0  0  0  0  0  0
    5.3373    2.5935   11.3733 H   0  0  0  0  0  0  0  0  0  0  0  0
    5.7553    2.8226   13.1625 H   0  0  0  0  0  0  0  0  0  0  0  0
    5.0064    4.1293   12.2061 H   0  0  0  0  0  0  0  0  0  0  0  0
    7.6971    4.1714   13.6828 H   0  0  0  0  0  0  0  0  0  0  0  0
    9.9620    5.0260   13.0034 H   0  0  0  0  0  0  0  0  0  0  0  0
  1  3  2  0
  1  4  1  0
  2  4  1  0
  1  5  1  0
  2  6  1  0
  5  6  1  0
  6  7  2  3
  5  8  1  0
  4 10  1  0
 10 11  2  0
 11 12  1  0
 12 13  2  0
 13 14  1  0
 10 15  1  0
 14 15  2  0
  9 16  2  0
  9 17  1  0
 14 18  1  0
 17 18  2  0
 18 19  1  0
 16 20  1  0
 19 20  2  0
  2 21  1  0
  7 22  1  0
  8 23  1  0
  8 24  1  0
  8 25  1  0
 11 26  1  0
 12 27  1  0
 13 28  1  0
 15 29  1  0
 16 30  1  0
 17 31  1  0
 19 32  1  0
 20 33  1  0
 34 35  1  0
 35 36  2  0
 36 37  1  0
 37 38  2  0
 38 39  1  0
 38 40  1  0
 40 41  2  0
 41 35  1  0
 34 42  1  0
 36 43  1  0
 37 44  1  0
 39 45  1  0
 39 46  1  0
 39 47  1  0
 40 48  1  0
 41 49  1  0
  4 34  1  6
M  END
>  <attachment_point>  (393) 
21

>  <score>  (393) 
<NA>

$$$$
4djw
     RDKit          3D

 42 45  0  0  0  0  0  0  0  0999 V2000
   22.4950   11.8750   22.5810 C   0  0  0  0  0  0  0  0  0  0  0  0
   22.5380    9.4930   22.4640 N   0  0  0  0  0  0  0  0  0  0  0  0
   22.3600   13.0630   22.3480 O   0  0  0  0  0  0  0  0  0  0  0  0
   22.3390   10.6680   21.5610 C   0  0  2  0  0  0  0  0  0  0  0  0
   22.7860   11.3350   23.8120 N   0  0  0  0  0  0  0  0  0  0  0  0
   22.7800    9.9140   23.7010 C   0  0  0  0  0  0  0  0  0  0  0  0
   22.9970    9.1110   24.7490 N   0  0  0  0  0  0  0  0  0  0  0  0
   23.0220   12.1410   25.0180 C   0  0  0  0  0  0  0  0  0  0  0  0
   29.1260    9.8230   21.7090 N   0  0  0  0  0  0  0  0  0  0  0  0
   23.4880   10.6920   20.5300 C   0  0  0  0  0  0  0  0  0  0  0  0
   23.2110   10.7890   19.1730 C   0  0  0  0  0  0  0  0  0  0  0  0
   24.2350   10.8650   18.2430 C   0  0  0  0  0  0  0  0  0  0  0  0
   25.5500   10.8410   18.6560 C   0  0  0  0  0  0  0  0  0  0  0  0
   25.8710   10.7460   20.0070 C   0  0  0  0  0  0  0  0  0  0  0  0
   24.8260   10.6610   20.9430 C   0  0  0  0  0  0  0  0  0  0  0  0
   29.8540   10.9130   21.4510 C   0  0  0  0  0  0  0  0  0  0  0  0
   27.8830    9.7800   21.2080 C   0  0  0  0  0  0  0  0  0  0  0  0
   27.3000   10.8010   20.4650 C   0  0  0  0  0  0  0  0  0  0  0  0
   28.0930   11.9190   20.2200 C   0  0  0  0  0  0  0  0  0  0  0  0
   29.3850   11.9780   20.7130 C   0  0  0  0  0  0  0  0  0  0  0  0
    0.0000    0.0000    0.0000 H   0  0  0  0  0  0  0  0  0  0  0  0
    0.0000    0.0000    0.0000 H   0  0  0  0  0  0  0  0  0  0  0  0
    0.0000    0.0000    0.0000 H   0  0  0  0  0  0  0  0  0  0  0  0
    0.0000    0.0000    0.0000 H   0  0  0  0  0  0  0  0  0  0  0  0
    0.0000    0.0000    0.0000 H   0  0  0  0  0  0  0  0  0  0  0  0
    0.0000    0.0000    0.0000 H   0  0  0  0  0  0  0  0  0  0  0  0
    0.0000    0.0000    0.0000 H   0  0  0  0  0  0  0  0  0  0  0  0
    0.0000    0.0000    0.0000 H   0  0  0  0  0  0  0  0  0  0  0  0
    0.0000    0.0000    0.0000 H   0  0  0  0  0  0  0  0  0  0  0  0
    0.0000    0.0000    0.0000 H   0  0  0  0  0  0  0  0  0  0  0  0
    0.0000    0.0000    0.0000 H   0  0  0  0  0  0  0  0  0  0  0  0
    0.0000    0.0000    0.0000 H   0  0  0  0  0  0  0  0  0  0  0  0
    0.0000    0.0000    0.0000 H   0  0  0  0  0  0  0  0  0  0  0  0
   10.8284    5.1711   10.4513 C   0  0  0  0  0  0  0  0  0  0  0  0
   10.7056    5.6092    9.1905 C   0  0  0  0  0  0  0  0  0  0  0  0
    9.6331    4.8797    8.6558 C   0  0  0  0  0  0  0  0  0  0  0  0
    9.1842    4.0460    9.6472 C   0  0  0  0  0  0  0  0  0  0  0  0
    9.9593    4.2638   10.7453 N   0  0  0  0  0  0  0  0  0  0  0  0
   11.2385    6.3407    8.6073 H   0  0  0  0  0  0  0  0  0  0  0  0
    9.2605    4.9765    7.6645 H   0  0  0  0  0  0  0  0  0  0  0  0
    8.3535    3.3246    9.5925 H   0  0  0  0  0  0  0  0  0  0  0  0
    9.8366    3.7519   11.6691 H   0  0  0  0  0  0  0  0  0  0  0  0
  1  3  2  0
  1  4  1  0
  2  4  1  0
  1  5  1  0
  2  6  1  0
  5  6  1  0
  6  7  2  3
  5  8  1  0
  4 10  1  6
 10 11  2  0
 11 12  1  0
 12 13  2  0
 13 14  1  0
 10 15  1  0
 14 15  2  0
  9 16  2  0
  9 17  1  0
 14 18  1  0
 17 18  2  0
 18 19  1  0
 16 20  1  0
 19 20  2  0
  2 21  1  0
  7 22  1  0
  8 23  1  0
  8 24  1  0
  8 25  1  0
 11 26  1  0
 12 27  1  0
 13 28  1  0
 15 29  1  0
 16 30  1  0
 17 31  1  0
 19 32  1  0
 20 33  1  0
 34 35  2  0
 35 36  1  0
 36 37  2  0
 37 38  1  0
 38 34  1  0
 35 39  1  0
 36 40  1  0
 37 41  1  0
 38 42  1  0
  4 34  1  0
M  END
>  <attachment_point>  (394) 
21

>  <score>  (394) 
<NA>

$$$$
4djw
     RDKit          3D

 48 51  0  0  0  0  0  0  0  0999 V2000
   22.4950   11.8750   22.5810 C   0  0  0  0  0  0  0  0  0  0  0  0
   22.5380    9.4930   22.4640 N   0  0  0  0  0  0  0  0  0  0  0  0
   22.3600   13.0630   22.3480 O   0  0  0  0  0  0  0  0  0  0  0  0
   22.3390   10.6680   21.5610 C   0  0  2  0  0  0  0  0  0  0  0  0
   22.7860   11.3350   23.8120 N   0  0  0  0  0  0  0  0  0  0  0  0
   22.7800    9.9140   23.7010 C   0  0  0  0  0  0  0  0  0  0  0  0
   22.9970    9.1110   24.7490 N   0  0  0  0  0  0  0  0  0  0  0  0
   23.0220   12.1410   25.0180 C   0  0  0  0  0  0  0  0  0  0  0  0
   29.1260    9.8230   21.7090 N   0  0  0  0  0  0  0  0  0  0  0  0
   23.4880   10.6920   20.5300 C   0  0  0  0  0  0  0  0  0  0  0  0
   23.2110   10.7890   19.1730 C   0  0  0  0  0  0  0  0  0  0  0  0
   24.2350   10.8650   18.2430 C   0  0  0  0  0  0  0  0  0  0  0  0
   25.5500   10.8410   18.6560 C   0  0  0  0  0  0  0  0  0  0  0  0
   25.8710   10.7460   20.0070 C   0  0  0  0  0  0  0  0  0  0  0  0
   24.8260   10.6610   20.9430 C   0  0  0  0  0  0  0  0  0  0  0  0
   29.8540   10.9130   21.4510 C   0  0  0  0  0  0  0  0  0  0  0  0
   27.8830    9.7800   21.2080 C   0  0  0  0  0  0  0  0  0  0  0  0
   27.3000   10.8010   20.4650 C   0  0  0  0  0  0  0  0  0  0  0  0
   28.0930   11.9190   20.2200 C   0  0  0  0  0  0  0  0  0  0  0  0
   29.3850   11.9780   20.7130 C   0  0  0  0  0  0  0  0  0  0  0  0
    0.0000    0.0000    0.0000 H   0  0  0  0  0  0  0  0  0  0  0  0
    0.0000    0.0000    0.0000 H   0  0  0  0  0  0  0  0  0  0  0  0
    0.0000    0.0000    0.0000 H   0  0  0  0  0  0  0  0  0  0  0  0
    0.0000    0.0000    0.0000 H   0  0  0  0  0  0  0  0  0  0  0  0
    0.0000    0.0000    0.0000 H   0  0  0  0  0  0  0  0  0  0  0  0
    0.0000    0.0000    0.0000 H   0  0  0  0  0  0  0  0  0  0  0  0
    0.0000    0.0000    0.0000 H   0  0  0  0  0  0  0  0  0  0  0  0
    0.0000    0.0000    0.0000 H   0  0  0  0  0  0  0  0  0  0  0  0
    0.0000    0.0000    0.0000 H   0  0  0  0  0  0  0  0  0  0  0  0
    0.0000    0.0000    0.0000 H   0  0  0  0  0  0  0  0  0  0  0  0
    0.0000    0.0000    0.0000 H   0  0  0  0  0  0  0  0  0  0  0  0
    0.0000    0.0000    0.0000 H   0  0  0  0  0  0  0  0  0  0  0  0
    0.0000    0.0000    0.0000 H   0  0  0  0  0  0  0  0  0  0  0  0
   10.8913    5.2011   10.5120 C   0  0  0  0  0  0  0  0  0  0  0  0
   11.2638    4.5633    9.3455 C   0  0  0  0  0  0  0  0  0  0  0  0
   10.3067    4.1238    8.4544 C   0  0  0  0  0  0  0  0  0  0  0  0
    8.9581    4.3231    8.7301 C   0  0  0  0  0  0  0  0  0  0  0  0
    8.5758    4.9536    9.8821 C   0  0  0  0  0  0  0  0  0  0  0  0
    7.2411    5.1381   10.1313 O   0  0  0  0  0  0  0  0  0  0  0  0
    6.5432    6.3040    9.7006 C   0  0  0  0  0  0  0  0  0  0  0  0
    6.6588    6.3334    8.3085 F   0  0  0  0  0  0  0  0  0  0  0  0
    5.2203    6.2114   10.0827 F   0  0  0  0  0  0  0  0  0  0  0  0
    7.1339    7.4069   10.2697 F   0  0  0  0  0  0  0  0  0  0  0  0
    9.5246    5.3893   10.7656 C   0  0  0  0  0  0  0  0  0  0  0  0
   12.3397    4.4229    9.1604 H   0  0  0  0  0  0  0  0  0  0  0  0
   10.6378    3.6213    7.5380 H   0  0  0  0  0  0  0  0  0  0  0  0
    8.1957    3.9865    8.0455 H   0  0  0  0  0  0  0  0  0  0  0  0
    9.2019    5.8847   11.6692 H   0  0  0  0  0  0  0  0  0  0  0  0
  1  3  2  0
  1  4  1  0
  2  4  1  0
  1  5  1  0
  2  6  1  0
  5  6  1  0
  6  7  2  3
  5  8  1  0
  4 10  1  6
 10 11  2  0
 11 12  1  0
 12 13  2  0
 13 14  1  0
 10 15  1  0
 14 15  2  0
  9 16  2  0
  9 17  1  0
 14 18  1  0
 17 18  2  0
 18 19  1  0
 16 20  1  0
 19 20  2  0
  2 21  1  0
  7 22  1  0
  8 23  1  0
  8 24  1  0
  8 25  1  0
 11 26  1  0
 12 27  1  0
 13 28  1  0
 15 29  1  0
 16 30  1  0
 17 31  1  0
 19 32  1  0
 20 33  1  0
 34 35  2  0
 35 36  1  0
 36 37  2  0
 37 38  1  0
 38 39  1  0
 39 40  1  0
 40 41  1  0
 40 42  1  0
 40 43  1  0
 38 44  2  0
 44 34  1  0
 35 45  1  0
 36 46  1  0
 37 47  1  0
 44 48  1  0
  4 34  1  0
M  END
>  <attachment_point>  (395) 
21

>  <score>  (395) 
<NA>

$$$$
4djw
     RDKit          3D

 52 55  0  0  0  0  0  0  0  0999 V2000
   22.4950   11.8750   22.5810 C   0  0  0  0  0  0  0  0  0  0  0  0
   22.5380    9.4930   22.4640 N   0  0  0  0  0  0  0  0  0  0  0  0
   22.3600   13.0630   22.3480 O   0  0  0  0  0  0  0  0  0  0  0  0
   22.3390   10.6680   21.5610 C   0  0  2  0  0  0  0  0  0  0  0  0
   22.7860   11.3350   23.8120 N   0  0  0  0  0  0  0  0  0  0  0  0
   22.7800    9.9140   23.7010 C   0  0  0  0  0  0  0  0  0  0  0  0
   22.9970    9.1110   24.7490 N   0  0  0  0  0  0  0  0  0  0  0  0
   23.0220   12.1410   25.0180 C   0  0  0  0  0  0  0  0  0  0  0  0
   29.1260    9.8230   21.7090 N   0  0  0  0  0  0  0  0  0  0  0  0
   23.4880   10.6920   20.5300 C   0  0  0  0  0  0  0  0  0  0  0  0
   23.2110   10.7890   19.1730 C   0  0  0  0  0  0  0  0  0  0  0  0
   24.2350   10.8650   18.2430 C   0  0  0  0  0  0  0  0  0  0  0  0
   25.5500   10.8410   18.6560 C   0  0  0  0  0  0  0  0  0  0  0  0
   25.8710   10.7460   20.0070 C   0  0  0  0  0  0  0  0  0  0  0  0
   24.8260   10.6610   20.9430 C   0  0  0  0  0  0  0  0  0  0  0  0
   29.8540   10.9130   21.4510 C   0  0  0  0  0  0  0  0  0  0  0  0
   27.8830    9.7800   21.2080 C   0  0  0  0  0  0  0  0  0  0  0  0
   27.3000   10.8010   20.4650 C   0  0  0  0  0  0  0  0  0  0  0  0
   28.0930   11.9190   20.2200 C   0  0  0  0  0  0  0  0  0  0  0  0
   29.3850   11.9780   20.7130 C   0  0  0  0  0  0  0  0  0  0  0  0
    0.0000    0.0000    0.0000 H   0  0  0  0  0  0  0  0  0  0  0  0
    0.0000    0.0000    0.0000 H   0  0  0  0  0  0  0  0  0  0  0  0
    0.0000    0.0000    0.0000 H   0  0  0  0  0  0  0  0  0  0  0  0
    0.0000    0.0000    0.0000 H   0  0  0  0  0  0  0  0  0  0  0  0
    0.0000    0.0000    0.0000 H   0  0  0  0  0  0  0  0  0  0  0  0
    0.0000    0.0000    0.0000 H   0  0  0  0  0  0  0  0  0  0  0  0
    0.0000    0.0000    0.0000 H   0  0  0  0  0  0  0  0  0  0  0  0
    0.0000    0.0000    0.0000 H   0  0  0  0  0  0  0  0  0  0  0  0
    0.0000    0.0000    0.0000 H   0  0  0  0  0  0  0  0  0  0  0  0
    0.0000    0.0000    0.0000 H   0  0  0  0  0  0  0  0  0  0  0  0
    0.0000    0.0000    0.0000 H   0  0  0  0  0  0  0  0  0  0  0  0
    0.0000    0.0000    0.0000 H   0  0  0  0  0  0  0  0  0  0  0  0
    0.0000    0.0000    0.0000 H   0  0  0  0  0  0  0  0  0  0  0  0
   10.8751    5.1934   10.4963 C   0  0  0  0  0  0  0  0  0  0  0  0
    9.8207    5.9979   10.1866 C   0  0  0  0  0  0  0  0  0  0  0  0
    8.8880    5.5433    9.2814 C   0  0  0  0  0  0  0  0  0  0  0  0
    7.8097    6.3371    8.9491 O   0  0  0  0  0  0  0  0  0  0  0  0
    7.6668    7.5938    9.5283 C   0  0  0  0  0  0  0  0  0  0  0  0
    9.0127    4.2997    8.6964 C   0  0  0  0  0  0  0  0  0  0  0  0
   10.0733    3.4700    8.9968 C   0  0  0  0  0  0  0  0  0  0  0  0
   10.1544    2.2318    8.3839 O   0  0  0  0  0  0  0  0  0  0  0  0
   11.1598    1.2900    8.5841 C   0  0  0  0  0  0  0  0  0  0  0  0
   11.0022    3.9321    9.9034 C   0  0  0  0  0  0  0  0  0  0  0  0
    9.7479    6.9726   10.6628 H   0  0  0  0  0  0  0  0  0  0  0  0
    7.5564    7.4942   10.6389 H   0  0  0  0  0  0  0  0  0  0  0  0
    6.8138    8.1709    9.1696 H   0  0  0  0  0  0  0  0  0  0  0  0
    8.6062    8.1760    9.3580 H   0  0  0  0  0  0  0  0  0  0  0  0
    8.2666    3.9421    7.9756 H   0  0  0  0  0  0  0  0  0  0  0  0
   10.8125    0.5987    9.4038 H   0  0  0  0  0  0  0  0  0  0  0  0
   12.1224    1.7130    8.9503 H   0  0  0  0  0  0  0  0  0  0  0  0
   11.3221    0.6315    7.6925 H   0  0  0  0  0  0  0  0  0  0  0  0
   11.8404    3.3204   10.1649 H   0  0  0  0  0  0  0  0  0  0  0  0
  1  3  2  0
  1  4  1  0
  2  4  1  0
  1  5  1  0
  2  6  1  0
  5  6  1  0
  6  7  2  3
  5  8  1  0
  4 10  1  6
 10 11  2  0
 11 12  1  0
 12 13  2  0
 13 14  1  0
 10 15  1  0
 14 15  2  0
  9 16  2  0
  9 17  1  0
 14 18  1  0
 17 18  2  0
 18 19  1  0
 16 20  1  0
 19 20  2  0
  2 21  1  0
  7 22  1  0
  8 23  1  0
  8 24  1  0
  8 25  1  0
 11 26  1  0
 12 27  1  0
 13 28  1  0
 15 29  1  0
 16 30  1  0
 17 31  1  0
 19 32  1  0
 20 33  1  0
 34 35  2  0
 35 36  1  0
 36 37  1  0
 37 38  1  0
 36 39  2  0
 39 40  1  0
 40 41  1  0
 41 42  1  0
 40 43  2  0
 43 34  1  0
 35 44  1  0
 38 45  1  0
 38 46  1  0
 38 47  1  0
 39 48  1  0
 42 49  1  0
 42 50  1  0
 42 51  1  0
 43 52  1  0
  4 34  1  0
M  END
>  <attachment_point>  (396) 
21

>  <score>  (396) 
<NA>

$$$$
4djw
     RDKit          3D

 55 58  0  0  0  0  0  0  0  0999 V2000
   22.4950   11.8750   22.5810 C   0  0  0  0  0  0  0  0  0  0  0  0
   22.5380    9.4930   22.4640 N   0  0  0  0  0  0  0  0  0  0  0  0
   22.3600   13.0630   22.3480 O   0  0  0  0  0  0  0  0  0  0  0  0
   22.3390   10.6680   21.5610 C   0  0  2  0  0  0  0  0  0  0  0  0
   22.7860   11.3350   23.8120 N   0  0  0  0  0  0  0  0  0  0  0  0
   22.7800    9.9140   23.7010 C   0  0  0  0  0  0  0  0  0  0  0  0
   22.9970    9.1110   24.7490 N   0  0  0  0  0  0  0  0  0  0  0  0
   23.0220   12.1410   25.0180 C   0  0  0  0  0  0  0  0  0  0  0  0
   29.1260    9.8230   21.7090 N   0  0  0  0  0  0  0  0  0  0  0  0
   23.4880   10.6920   20.5300 C   0  0  0  0  0  0  0  0  0  0  0  0
   23.2110   10.7890   19.1730 C   0  0  0  0  0  0  0  0  0  0  0  0
   24.2350   10.8650   18.2430 C   0  0  0  0  0  0  0  0  0  0  0  0
   25.5500   10.8410   18.6560 C   0  0  0  0  0  0  0  0  0  0  0  0
   25.8710   10.7460   20.0070 C   0  0  0  0  0  0  0  0  0  0  0  0
   24.8260   10.6610   20.9430 C   0  0  0  0  0  0  0  0  0  0  0  0
   29.8540   10.9130   21.4510 C   0  0  0  0  0  0  0  0  0  0  0  0
   27.8830    9.7800   21.2080 C   0  0  0  0  0  0  0  0  0  0  0  0
   27.3000   10.8010   20.4650 C   0  0  0  0  0  0  0  0  0  0  0  0
   28.0930   11.9190   20.2200 C   0  0  0  0  0  0  0  0  0  0  0  0
   29.3850   11.9780   20.7130 C   0  0  0  0  0  0  0  0  0  0  0  0
    0.0000    0.0000    0.0000 H   0  0  0  0  0  0  0  0  0  0  0  0
    0.0000    0.0000    0.0000 H   0  0  0  0  0  0  0  0  0  0  0  0
    0.0000    0.0000    0.0000 H   0  0  0  0  0  0  0  0  0  0  0  0
    0.0000    0.0000    0.0000 H   0  0  0  0  0  0  0  0  0  0  0  0
    0.0000    0.0000    0.0000 H   0  0  0  0  0  0  0  0  0  0  0  0
    0.0000    0.0000    0.0000 H   0  0  0  0  0  0  0  0  0  0  0  0
    0.0000    0.0000    0.0000 H   0  0  0  0  0  0  0  0  0  0  0  0
    0.0000    0.0000    0.0000 H   0  0  0  0  0  0  0  0  0  0  0  0
    0.0000    0.0000    0.0000 H   0  0  0  0  0  0  0  0  0  0  0  0
    0.0000    0.0000    0.0000 H   0  0  0  0  0  0  0  0  0  0  0  0
    0.0000    0.0000    0.0000 H   0  0  0  0  0  0  0  0  0  0  0  0
    0.0000    0.0000    0.0000 H   0  0  0  0  0  0  0  0  0  0  0  0
    0.0000    0.0000    0.0000 H   0  0  0  0  0  0  0  0  0  0  0  0
   10.8806    5.1960   10.5017 C   0  0  0  0  0  0  0  0  0  0  0  0
   11.1234    3.8985    9.9499 N   0  0  0  0  0  0  0  0  0  0  0  0
   11.1739    2.8479   10.9073 C   0  0  0  0  0  0  0  0  0  0  0  0
   12.0983    3.8486    8.9238 C   0  0  0  0  0  0  0  0  0  0  0  0
   11.7480    4.6910    7.7585 C   0  0  0  0  0  0  0  0  0  0  0  0
   12.1524    6.0250    7.6701 C   0  0  0  0  0  0  0  0  0  0  0  0
   11.8200    6.7851    6.5923 C   0  0  0  0  0  0  0  0  0  0  0  0
   11.0777    6.2711    5.5559 C   0  0  0  0  0  0  0  0  0  0  0  0
   10.6864    4.9536    5.6580 C   0  0  0  0  0  0  0  0  0  0  0  0
   10.9991    4.1445    6.7303 C   0  0  0  0  0  0  0  0  0  0  0  0
   10.7662    5.9607    9.7285 H   0  0  0  0  0  0  0  0  0  0  0  0
    9.9235    5.1723   11.1018 H   0  0  0  0  0  0  0  0  0  0  0  0
   10.1684    2.5141   11.2077 H   0  0  0  0  0  0  0  0  0  0  0  0
   11.8009    3.0693   11.7947 H   0  0  0  0  0  0  0  0  0  0  0  0
   11.6559    1.9570   10.4178 H   0  0  0  0  0  0  0  0  0  0  0  0
   13.1198    4.1312    9.2295 H   0  0  0  0  0  0  0  0  0  0  0  0
   12.1491    2.7911    8.5555 H   0  0  0  0  0  0  0  0  0  0  0  0
   12.7456    6.4624    8.4794 H   0  0  0  0  0  0  0  0  0  0  0  0
   12.1275    7.8207    6.5117 H   0  0  0  0  0  0  0  0  0  0  0  0
   10.8136    6.8876    4.6916 H   0  0  0  0  0  0  0  0  0  0  0  0
   10.0960    4.5322    4.8411 H   0  0  0  0  0  0  0  0  0  0  0  0
   10.6927    3.1175    6.8073 H   0  0  0  0  0  0  0  0  0  0  0  0
  1  3  2  0
  1  4  1  0
  2  4  1  0
  1  5  1  0
  2  6  1  0
  5  6  1  0
  6  7  2  3
  5  8  1  0
  4 10  1  0
 10 11  2  0
 11 12  1  0
 12 13  2  0
 13 14  1  0
 10 15  1  0
 14 15  2  0
  9 16  2  0
  9 17  1  0
 14 18  1  0
 17 18  2  0
 18 19  1  0
 16 20  1  0
 19 20  2  0
  2 21  1  0
  7 22  1  0
  8 23  1  0
  8 24  1  0
  8 25  1  0
 11 26  1  0
 12 27  1  0
 13 28  1  0
 15 29  1  0
 16 30  1  0
 17 31  1  0
 19 32  1  0
 20 33  1  0
 34 35  1  0
 35 36  1  0
 35 37  1  0
 37 38  1  0
 38 39  2  0
 39 40  1  0
 40 41  2  0
 41 42  1  0
 42 43  2  0
 43 38  1  0
 34 44  1  0
 34 45  1  0
 36 46  1  0
 36 47  1  0
 36 48  1  0
 37 49  1  0
 37 50  1  0
 39 51  1  0
 40 52  1  0
 41 53  1  0
 42 54  1  0
 43 55  1  0
  4 34  1  6
M  END
>  <attachment_point>  (397) 
21

>  <score>  (397) 
<NA>

$$$$
4djw
     RDKit          3D

 49 52  0  0  0  0  0  0  0  0999 V2000
   22.4950   11.8750   22.5810 C   0  0  0  0  0  0  0  0  0  0  0  0
   22.5380    9.4930   22.4640 N   0  0  0  0  0  0  0  0  0  0  0  0
   22.3600   13.0630   22.3480 O   0  0  0  0  0  0  0  0  0  0  0  0
   22.3390   10.6680   21.5610 C   0  0  2  0  0  0  0  0  0  0  0  0
   22.7860   11.3350   23.8120 N   0  0  0  0  0  0  0  0  0  0  0  0
   22.7800    9.9140   23.7010 C   0  0  0  0  0  0  0  0  0  0  0  0
   22.9970    9.1110   24.7490 N   0  0  0  0  0  0  0  0  0  0  0  0
   23.0220   12.1410   25.0180 C   0  0  0  0  0  0  0  0  0  0  0  0
   29.1260    9.8230   21.7090 N   0  0  0  0  0  0  0  0  0  0  0  0
   23.4880   10.6920   20.5300 C   0  0  0  0  0  0  0  0  0  0  0  0
   23.2110   10.7890   19.1730 C   0  0  0  0  0  0  0  0  0  0  0  0
   24.2350   10.8650   18.2430 C   0  0  0  0  0  0  0  0  0  0  0  0
   25.5500   10.8410   18.6560 C   0  0  0  0  0  0  0  0  0  0  0  0
   25.8710   10.7460   20.0070 C   0  0  0  0  0  0  0  0  0  0  0  0
   24.8260   10.6610   20.9430 C   0  0  0  0  0  0  0  0  0  0  0  0
   29.8540   10.9130   21.4510 C   0  0  0  0  0  0  0  0  0  0  0  0
   27.8830    9.7800   21.2080 C   0  0  0  0  0  0  0  0  0  0  0  0
   27.3000   10.8010   20.4650 C   0  0  0  0  0  0  0  0  0  0  0  0
   28.0930   11.9190   20.2200 C   0  0  0  0  0  0  0  0  0  0  0  0
   29.3850   11.9780   20.7130 C   0  0  0  0  0  0  0  0  0  0  0  0
    0.0000    0.0000    0.0000 H   0  0  0  0  0  0  0  0  0  0  0  0
    0.0000    0.0000    0.0000 H   0  0  0  0  0  0  0  0  0  0  0  0
    0.0000    0.0000    0.0000 H   0  0  0  0  0  0  0  0  0  0  0  0
    0.0000    0.0000    0.0000 H   0  0  0  0  0  0  0  0  0  0  0  0
    0.0000    0.0000    0.0000 H   0  0  0  0  0  0  0  0  0  0  0  0
    0.0000    0.0000    0.0000 H   0  0  0  0  0  0  0  0  0  0  0  0
    0.0000    0.0000    0.0000 H   0  0  0  0  0  0  0  0  0  0  0  0
    0.0000    0.0000    0.0000 H   0  0  0  0  0  0  0  0  0  0  0  0
    0.0000    0.0000    0.0000 H   0  0  0  0  0  0  0  0  0  0  0  0
    0.0000    0.0000    0.0000 H   0  0  0  0  0  0  0  0  0  0  0  0
    0.0000    0.0000    0.0000 H   0  0  0  0  0  0  0  0  0  0  0  0
    0.0000    0.0000    0.0000 H   0  0  0  0  0  0  0  0  0  0  0  0
    0.0000    0.0000    0.0000 H   0  0  0  0  0  0  0  0  0  0  0  0
   10.8570    5.1848   10.4789 C   0  0  0  0  0  0  0  0  0  0  0  0
   11.0859    5.9156    9.2398 N   0  0  0  0  0  0  0  0  0  0  0  0
   10.9828    7.3297    9.2532 C   0  0  0  0  0  0  0  0  0  0  0  0
   10.6747    8.0149   10.3997 C   0  0  0  0  0  0  0  0  0  0  0  0
   10.5761    9.3858   10.4073 C   0  0  0  0  0  0  0  0  0  0  0  0
   10.7810   10.1207    9.2724 C   0  0  0  0  0  0  0  0  0  0  0  0
   11.0905    9.4278    8.1219 C   0  0  0  0  0  0  0  0  0  0  0  0
   11.1921    8.0500    8.1038 C   0  0  0  0  0  0  0  0  0  0  0  0
    9.8523    5.4296   10.8768 H   0  0  0  0  0  0  0  0  0  0  0  0
   11.0312    4.1059   10.3494 H   0  0  0  0  0  0  0  0  0  0  0  0
   11.3179    5.3616    8.3882 H   0  0  0  0  0  0  0  0  0  0  0  0
   10.4988    7.4795   11.3441 H   0  0  0  0  0  0  0  0  0  0  0  0
   10.3287    9.8957   11.3402 H   0  0  0  0  0  0  0  0  0  0  0  0
   10.7034   11.2151    9.2733 H   0  0  0  0  0  0  0  0  0  0  0  0
   11.2564   10.0137    7.2059 H   0  0  0  0  0  0  0  0  0  0  0  0
   11.4424    7.5437    7.1561 H   0  0  0  0  0  0  0  0  0  0  0  0
  1  3  2  0
  1  4  1  0
  2  4  1  0
  1  5  1  0
  2  6  1  0
  5  6  1  0
  6  7  2  3
  5  8  1  0
  4 10  1  0
 10 11  2  0
 11 12  1  0
 12 13  2  0
 13 14  1  0
 10 15  1  0
 14 15  2  0
  9 16  2  0
  9 17  1  0
 14 18  1  0
 17 18  2  0
 18 19  1  0
 16 20  1  0
 19 20  2  0
  2 21  1  0
  7 22  1  0
  8 23  1  0
  8 24  1  0
  8 25  1  0
 11 26  1  0
 12 27  1  0
 13 28  1  0
 15 29  1  0
 16 30  1  0
 17 31  1  0
 19 32  1  0
 20 33  1  0
 34 35  1  0
 35 36  1  0
 36 37  2  0
 37 38  1  0
 38 39  2  0
 39 40  1  0
 40 41  2  0
 41 36  1  0
 34 42  1  0
 34 43  1  0
 35 44  1  0
 37 45  1  0
 38 46  1  0
 39 47  1  0
 40 48  1  0
 41 49  1  0
  4 34  1  6
M  END
>  <attachment_point>  (398) 
21

>  <score>  (398) 
<NA>

$$$$
4djw
     RDKit          3D

 53 57  0  0  0  0  0  0  0  0999 V2000
   22.4950   11.8750   22.5810 C   0  0  0  0  0  0  0  0  0  0  0  0
   22.5380    9.4930   22.4640 N   0  0  0  0  0  0  0  0  0  0  0  0
   22.3600   13.0630   22.3480 O   0  0  0  0  0  0  0  0  0  0  0  0
   22.3390   10.6680   21.5610 C   0  0  2  0  0  0  0  0  0  0  0  0
   22.7860   11.3350   23.8120 N   0  0  0  0  0  0  0  0  0  0  0  0
   22.7800    9.9140   23.7010 C   0  0  0  0  0  0  0  0  0  0  0  0
   22.9970    9.1110   24.7490 N   0  0  0  0  0  0  0  0  0  0  0  0
   23.0220   12.1410   25.0180 C   0  0  0  0  0  0  0  0  0  0  0  0
   29.1260    9.8230   21.7090 N   0  0  0  0  0  0  0  0  0  0  0  0
   23.4880   10.6920   20.5300 C   0  0  0  0  0  0  0  0  0  0  0  0
   23.2110   10.7890   19.1730 C   0  0  0  0  0  0  0  0  0  0  0  0
   24.2350   10.8650   18.2430 C   0  0  0  0  0  0  0  0  0  0  0  0
   25.5500   10.8410   18.6560 C   0  0  0  0  0  0  0  0  0  0  0  0
   25.8710   10.7460   20.0070 C   0  0  0  0  0  0  0  0  0  0  0  0
   24.8260   10.6610   20.9430 C   0  0  0  0  0  0  0  0  0  0  0  0
   29.8540   10.9130   21.4510 C   0  0  0  0  0  0  0  0  0  0  0  0
   27.8830    9.7800   21.2080 C   0  0  0  0  0  0  0  0  0  0  0  0
   27.3000   10.8010   20.4650 C   0  0  0  0  0  0  0  0  0  0  0  0
   28.0930   11.9190   20.2200 C   0  0  0  0  0  0  0  0  0  0  0  0
   29.3850   11.9780   20.7130 C   0  0  0  0  0  0  0  0  0  0  0  0
    0.0000    0.0000    0.0000 H   0  0  0  0  0  0  0  0  0  0  0  0
    0.0000    0.0000    0.0000 H   0  0  0  0  0  0  0  0  0  0  0  0
    0.0000    0.0000    0.0000 H   0  0  0  0  0  0  0  0  0  0  0  0
    0.0000    0.0000    0.0000 H   0  0  0  0  0  0  0  0  0  0  0  0
    0.0000    0.0000    0.0000 H   0  0  0  0  0  0  0  0  0  0  0  0
    0.0000    0.0000    0.0000 H   0  0  0  0  0  0  0  0  0  0  0  0
    0.0000    0.0000    0.0000 H   0  0  0  0  0  0  0  0  0  0  0  0
    0.0000    0.0000    0.0000 H   0  0  0  0  0  0  0  0  0  0  0  0
    0.0000    0.0000    0.0000 H   0  0  0  0  0  0  0  0  0  0  0  0
    0.0000    0.0000    0.0000 H   0  0  0  0  0  0  0  0  0  0  0  0
    0.0000    0.0000    0.0000 H   0  0  0  0  0  0  0  0  0  0  0  0
    0.0000    0.0000    0.0000 H   0  0  0  0  0  0  0  0  0  0  0  0
    0.0000    0.0000    0.0000 H   0  0  0  0  0  0  0  0  0  0  0  0
   10.8910    5.2010   10.5117 C   0  0  0  0  0  0  0  0  0  0  0  0
   10.4093    6.3455    9.6927 C   0  0  0  0  0  0  0  0  0  0  0  0
    9.3199    7.0855   10.1035 C   0  0  0  0  0  0  0  0  0  0  0  0
    8.8374    8.1575    9.3738 C   0  0  0  0  0  0  0  0  0  0  0  0
    9.4412    8.5291    8.1889 C   0  0  0  0  0  0  0  0  0  0  0  0
    8.9873    9.5965    7.4305 C   0  0  0  0  0  0  0  0  0  0  0  0
    9.6001    9.9610    6.2431 C   0  0  0  0  0  0  0  0  0  0  0  0
   10.6862    9.2307    5.8245 C   0  0  0  0  0  0  0  0  0  0  0  0
   11.1298    8.1744    6.5816 C   0  0  0  0  0  0  0  0  0  0  0  0
   10.5311    7.7911    7.7749 C   0  0  0  0  0  0  0  0  0  0  0  0
   11.0121    6.7168    8.5092 C   0  0  0  0  0  0  0  0  0  0  0  0
   10.0190    4.7986   11.0856 H   0  0  0  0  0  0  0  0  0  0  0  0
   11.2580    4.3868    9.8529 H   0  0  0  0  0  0  0  0  0  0  0  0
    8.8561    6.7744   11.0451 H   0  0  0  0  0  0  0  0  0  0  0  0
    7.9786    8.7101    9.7356 H   0  0  0  0  0  0  0  0  0  0  0  0
    8.1174   10.1720    7.7775 H   0  0  0  0  0  0  0  0  0  0  0  0
    9.1852   10.8028    5.7139 H   0  0  0  0  0  0  0  0  0  0  0  0
   11.1731    9.5062    4.8984 H   0  0  0  0  0  0  0  0  0  0  0  0
   11.9839    7.5806    6.2764 H   0  0  0  0  0  0  0  0  0  0  0  0
   11.8731    6.1674    8.1410 H   0  0  0  0  0  0  0  0  0  0  0  0
  1  3  2  0
  1  4  1  0
  2  4  1  0
  1  5  1  0
  2  6  1  0
  5  6  1  0
  6  7  2  3
  5  8  1  0
  4 10  1  0
 10 11  2  0
 11 12  1  0
 12 13  2  0
 13 14  1  0
 10 15  1  0
 14 15  2  0
  9 16  2  0
  9 17  1  0
 14 18  1  0
 17 18  2  0
 18 19  1  0
 16 20  1  0
 19 20  2  0
  2 21  1  0
  7 22  1  0
  8 23  1  0
  8 24  1  0
  8 25  1  0
 11 26  1  0
 12 27  1  0
 13 28  1  0
 15 29  1  0
 16 30  1  0
 17 31  1  0
 19 32  1  0
 20 33  1  0
 34 35  1  0
 35 36  2  0
 36 37  1  0
 37 38  2  0
 38 39  1  0
 39 40  2  0
 40 41  1  0
 41 42  2  0
 42 43  1  0
 43 44  2  0
 44 35  1  0
 43 38  1  0
 34 45  1  0
 34 46  1  0
 36 47  1  0
 37 48  1  0
 39 49  1  0
 40 50  1  0
 41 51  1  0
 42 52  1  0
 44 53  1  0
  4 34  1  6
M  END
>  <attachment_point>  (399) 
21

>  <score>  (399) 
<NA>

$$$$
4djw
     RDKit          3D

 48 52  0  0  0  0  0  0  0  0999 V2000
   22.4950   11.8750   22.5810 C   0  0  0  0  0  0  0  0  0  0  0  0
   22.5380    9.4930   22.4640 N   0  0  0  0  0  0  0  0  0  0  0  0
   22.3600   13.0630   22.3480 O   0  0  0  0  0  0  0  0  0  0  0  0
   22.3390   10.6680   21.5610 C   0  0  2  0  0  0  0  0  0  0  0  0
   22.7860   11.3350   23.8120 N   0  0  0  0  0  0  0  0  0  0  0  0
   22.7800    9.9140   23.7010 C   0  0  0  0  0  0  0  0  0  0  0  0
   22.9970    9.1110   24.7490 N   0  0  0  0  0  0  0  0  0  0  0  0
   23.0220   12.1410   25.0180 C   0  0  0  0  0  0  0  0  0  0  0  0
   29.1260    9.8230   21.7090 N   0  0  0  0  0  0  0  0  0  0  0  0
   23.4880   10.6920   20.5300 C   0  0  0  0  0  0  0  0  0  0  0  0
   23.2110   10.7890   19.1730 C   0  0  0  0  0  0  0  0  0  0  0  0
   24.2350   10.8650   18.2430 C   0  0  0  0  0  0  0  0  0  0  0  0
   25.5500   10.8410   18.6560 C   0  0  0  0  0  0  0  0  0  0  0  0
   25.8710   10.7460   20.0070 C   0  0  0  0  0  0  0  0  0  0  0  0
   24.8260   10.6610   20.9430 C   0  0  0  0  0  0  0  0  0  0  0  0
   29.8540   10.9130   21.4510 C   0  0  0  0  0  0  0  0  0  0  0  0
   27.8830    9.7800   21.2080 C   0  0  0  0  0  0  0  0  0  0  0  0
   27.3000   10.8010   20.4650 C   0  0  0  0  0  0  0  0  0  0  0  0
   28.0930   11.9190   20.2200 C   0  0  0  0  0  0  0  0  0  0  0  0
   29.3850   11.9780   20.7130 C   0  0  0  0  0  0  0  0  0  0  0  0
    0.0000    0.0000    0.0000 H   0  0  0  0  0  0  0  0  0  0  0  0
    0.0000    0.0000    0.0000 H   0  0  0  0  0  0  0  0  0  0  0  0
    0.0000    0.0000    0.0000 H   0  0  0  0  0  0  0  0  0  0  0  0
    0.0000    0.0000    0.0000 H   0  0  0  0  0  0  0  0  0  0  0  0
    0.0000    0.0000    0.0000 H   0  0  0  0  0  0  0  0  0  0  0  0
    0.0000    0.0000    0.0000 H   0  0  0  0  0  0  0  0  0  0  0  0
    0.0000    0.0000    0.0000 H   0  0  0  0  0  0  0  0  0  0  0  0
    0.0000    0.0000    0.0000 H   0  0  0  0  0  0  0  0  0  0  0  0
    0.0000    0.0000    0.0000 H   0  0  0  0  0  0  0  0  0  0  0  0
    0.0000    0.0000    0.0000 H   0  0  0  0  0  0  0  0  0  0  0  0
    0.0000    0.0000    0.0000 H   0  0  0  0  0  0  0  0  0  0  0  0
    0.0000    0.0000    0.0000 H   0  0  0  0  0  0  0  0  0  0  0  0
    0.0000    0.0000    0.0000 H   0  0  0  0  0  0  0  0  0  0  0  0
   10.8361    5.1748   10.4587 C   0  0  0  0  0  0  0  0  0  0  0  0
    9.5227    5.2669   10.8052 C   0  0  0  0  0  0  0  0  0  0  0  0
    8.5877    4.8081    9.8754 C   0  0  0  0  0  0  0  0  0  0  0  0
    8.9772    4.2859    8.6624 C   0  0  0  0  0  0  0  0  0  0  0  0
    8.2863    3.7729    7.5848 C   0  0  0  0  0  0  0  0  0  0  0  0
    9.1992    3.3883    6.6249 C   0  0  0  0  0  0  0  0  0  0  0  0
   10.4105    3.6725    7.1336 N   0  0  0  0  0  0  0  0  0  0  0  0
   10.3101    4.2122    8.3552 C   0  0  0  0  0  0  0  0  0  0  0  0
   11.2666    4.6698    9.2799 C   0  0  0  0  0  0  0  0  0  0  0  0
    9.2063    5.6745   11.7534 H   0  0  0  0  0  0  0  0  0  0  0  0
    7.5310    4.8525   10.0876 H   0  0  0  0  0  0  0  0  0  0  0  0
    7.1954    3.6910    7.5173 H   0  0  0  0  0  0  0  0  0  0  0  0
    9.0091    2.9449    5.6503 H   0  0  0  0  0  0  0  0  0  0  0  0
   11.3231    3.4940    6.6360 H   0  0  0  0  0  0  0  0  0  0  0  0
   12.3054    4.6026    9.0187 H   0  0  0  0  0  0  0  0  0  0  0  0
  1  3  2  0
  1  4  1  0
  2  4  1  0
  1  5  1  0
  2  6  1  0
  5  6  1  0
  6  7  2  3
  5  8  1  0
  4 10  1  6
 10 11  2  0
 11 12  1  0
 12 13  2  0
 13 14  1  0
 10 15  1  0
 14 15  2  0
  9 16  2  0
  9 17  1  0
 14 18  1  0
 17 18  2  0
 18 19  1  0
 16 20  1  0
 19 20  2  0
  2 21  1  0
  7 22  1  0
  8 23  1  0
  8 24  1  0
  8 25  1  0
 11 26  1  0
 12 27  1  0
 13 28  1  0
 15 29  1  0
 16 30  1  0
 17 31  1  0
 19 32  1  0
 20 33  1  0
 34 35  2  0
 35 36  1  0
 36 37  2  0
 37 38  1  0
 38 39  2  0
 39 40  1  0
 40 41  1  0
 41 42  2  0
 42 34  1  0
 41 37  1  0
 35 43  1  0
 36 44  1  0
 38 45  1  0
 39 46  1  0
 40 47  1  0
 42 48  1  0
  4 34  1  0
M  END
>  <attachment_point>  (400) 
21

>  <score>  (400) 
<NA>

$$$$
4djw
     RDKit          3D

 41 43  0  0  0  0  0  0  0  0999 V2000
   22.4950   11.8750   22.5810 C   0  0  0  0  0  0  0  0  0  0  0  0
   22.5380    9.4930   22.4640 N   0  0  0  0  0  0  0  0  0  0  0  0
   22.3600   13.0630   22.3480 O   0  0  0  0  0  0  0  0  0  0  0  0
   22.3390   10.6680   21.5610 C   0  0  2  0  0  0  0  0  0  0  0  0
   22.7860   11.3350   23.8120 N   0  0  0  0  0  0  0  0  0  0  0  0
   22.7800    9.9140   23.7010 C   0  0  0  0  0  0  0  0  0  0  0  0
   22.9970    9.1110   24.7490 N   0  0  0  0  0  0  0  0  0  0  0  0
   23.0220   12.1410   25.0180 C   0  0  0  0  0  0  0  0  0  0  0  0
   29.1260    9.8230   21.7090 N   0  0  0  0  0  0  0  0  0  0  0  0
   23.4880   10.6920   20.5300 C   0  0  0  0  0  0  0  0  0  0  0  0
   23.2110   10.7890   19.1730 C   0  0  0  0  0  0  0  0  0  0  0  0
   24.2350   10.8650   18.2430 C   0  0  0  0  0  0  0  0  0  0  0  0
   25.5500   10.8410   18.6560 C   0  0  0  0  0  0  0  0  0  0  0  0
   25.8710   10.7460   20.0070 C   0  0  0  0  0  0  0  0  0  0  0  0
   24.8260   10.6610   20.9430 C   0  0  0  0  0  0  0  0  0  0  0  0
   29.8540   10.9130   21.4510 C   0  0  0  0  0  0  0  0  0  0  0  0
   27.8830    9.7800   21.2080 C   0  0  0  0  0  0  0  0  0  0  0  0
   27.3000   10.8010   20.4650 C   0  0  0  0  0  0  0  0  0  0  0  0
   28.0930   11.9190   20.2200 C   0  0  0  0  0  0  0  0  0  0  0  0
   29.3850   11.9780   20.7130 C   0  0  0  0  0  0  0  0  0  0  0  0
    0.0000    0.0000    0.0000 H   0  0  0  0  0  0  0  0  0  0  0  0
    0.0000    0.0000    0.0000 H   0  0  0  0  0  0  0  0  0  0  0  0
    0.0000    0.0000    0.0000 H   0  0  0  0  0  0  0  0  0  0  0  0
    0.0000    0.0000    0.0000 H   0  0  0  0  0  0  0  0  0  0  0  0
    0.0000    0.0000    0.0000 H   0  0  0  0  0  0  0  0  0  0  0  0
    0.0000    0.0000    0.0000 H   0  0  0  0  0  0  0  0  0  0  0  0
    0.0000    0.0000    0.0000 H   0  0  0  0  0  0  0  0  0  0  0  0
    0.0000    0.0000    0.0000 H   0  0  0  0  0  0  0  0  0  0  0  0
    0.0000    0.0000    0.0000 H   0  0  0  0  0  0  0  0  0  0  0  0
    0.0000    0.0000    0.0000 H   0  0  0  0  0  0  0  0  0  0  0  0
    0.0000    0.0000    0.0000 H   0  0  0  0  0  0  0  0  0  0  0  0
    0.0000    0.0000    0.0000 H   0  0  0  0  0  0  0  0  0  0  0  0
    0.0000    0.0000    0.0000 H   0  0  0  0  0  0  0  0  0  0  0  0
   10.8715    5.1917   10.4929 C   0  0  0  0  0  0  0  0  0  0  0  0
   11.0431    4.0603    9.8338 C   0  0  0  0  0  0  0  0  0  0  0  0
   10.0365    3.6110    8.8833 C   0  0  0  0  0  0  0  0  0  0  0  0
    9.0196    4.2977    8.6987 O   0  0  0  0  0  0  0  0  0  0  0  0
   10.1721    2.4287    8.1666 O   0  0  0  0  0  0  0  0  0  0  0  0
    9.9854    5.7660   10.3156 H   0  0  0  0  0  0  0  0  0  0  0  0
   11.9526    3.5005   10.0358 H   0  0  0  0  0  0  0  0  0  0  0  0
    9.3520    1.8103    8.0630 H   0  0  0  0  0  0  0  0  0  0  0  0
  1  3  2  0
  1  4  1  0
  2  4  1  0
  1  5  1  0
  2  6  1  0
  5  6  1  0
  6  7  2  3
  5  8  1  0
  4 10  1  6
 10 11  2  0
 11 12  1  0
 12 13  2  0
 13 14  1  0
 10 15  1  0
 14 15  2  0
  9 16  2  0
  9 17  1  0
 14 18  1  0
 17 18  2  0
 18 19  1  0
 16 20  1  0
 19 20  2  0
  2 21  1  0
  7 22  1  0
  8 23  1  0
  8 24  1  0
  8 25  1  0
 11 26  1  0
 12 27  1  0
 13 28  1  0
 15 29  1  0
 16 30  1  0
 17 31  1  0
 19 32  1  0
 20 33  1  0
 34 35  2  3
 35 36  1  0
 36 37  2  0
 36 38  1  0
 34 39  1  0
 35 40  1  0
 38 41  1  0
  4 34  1  0
M  END
>  <attachment_point>  (401) 
21

>  <score>  (401) 
<NA>

$$$$
4djw
     RDKit          3D

 45 48  0  0  0  0  0  0  0  0999 V2000
   22.4950   11.8750   22.5810 C   0  0  0  0  0  0  0  0  0  0  0  0
   22.5380    9.4930   22.4640 N   0  0  0  0  0  0  0  0  0  0  0  0
   22.3600   13.0630   22.3480 O   0  0  0  0  0  0  0  0  0  0  0  0
   22.3390   10.6680   21.5610 C   0  0  2  0  0  0  0  0  0  0  0  0
   22.7860   11.3350   23.8120 N   0  0  0  0  0  0  0  0  0  0  0  0
   22.7800    9.9140   23.7010 C   0  0  0  0  0  0  0  0  0  0  0  0
   22.9970    9.1110   24.7490 N   0  0  0  0  0  0  0  0  0  0  0  0
   23.0220   12.1410   25.0180 C   0  0  0  0  0  0  0  0  0  0  0  0
   29.1260    9.8230   21.7090 N   0  0  0  0  0  0  0  0  0  0  0  0
   23.4880   10.6920   20.5300 C   0  0  0  0  0  0  0  0  0  0  0  0
   23.2110   10.7890   19.1730 C   0  0  0  0  0  0  0  0  0  0  0  0
   24.2350   10.8650   18.2430 C   0  0  0  0  0  0  0  0  0  0  0  0
   25.5500   10.8410   18.6560 C   0  0  0  0  0  0  0  0  0  0  0  0
   25.8710   10.7460   20.0070 C   0  0  0  0  0  0  0  0  0  0  0  0
   24.8260   10.6610   20.9430 C   0  0  0  0  0  0  0  0  0  0  0  0
   29.8540   10.9130   21.4510 C   0  0  0  0  0  0  0  0  0  0  0  0
   27.8830    9.7800   21.2080 C   0  0  0  0  0  0  0  0  0  0  0  0
   27.3000   10.8010   20.4650 C   0  0  0  0  0  0  0  0  0  0  0  0
   28.0930   11.9190   20.2200 C   0  0  0  0  0  0  0  0  0  0  0  0
   29.3850   11.9780   20.7130 C   0  0  0  0  0  0  0  0  0  0  0  0
    0.0000    0.0000    0.0000 H   0  0  0  0  0  0  0  0  0  0  0  0
    0.0000    0.0000    0.0000 H   0  0  0  0  0  0  0  0  0  0  0  0
    0.0000    0.0000    0.0000 H   0  0  0  0  0  0  0  0  0  0  0  0
    0.0000    0.0000    0.0000 H   0  0  0  0  0  0  0  0  0  0  0  0
    0.0000    0.0000    0.0000 H   0  0  0  0  0  0  0  0  0  0  0  0
    0.0000    0.0000    0.0000 H   0  0  0  0  0  0  0  0  0  0  0  0
    0.0000    0.0000    0.0000 H   0  0  0  0  0  0  0  0  0  0  0  0
    0.0000    0.0000    0.0000 H   0  0  0  0  0  0  0  0  0  0  0  0
    0.0000    0.0000    0.0000 H   0  0  0  0  0  0  0  0  0  0  0  0
    0.0000    0.0000    0.0000 H   0  0  0  0  0  0  0  0  0  0  0  0
    0.0000    0.0000    0.0000 H   0  0  0  0  0  0  0  0  0  0  0  0
    0.0000    0.0000    0.0000 H   0  0  0  0  0  0  0  0  0  0  0  0
    0.0000    0.0000    0.0000 H   0  0  0  0  0  0  0  0  0  0  0  0
   10.8900    5.2005   10.5107 C   0  0  1  0  0  0  0  0  0  0  0  0
   10.0383    6.4263   10.1497 C   0  0  0  0  0  0  0  0  0  0  0  0
   11.1537    7.2598    9.4989 C   0  0  0  0  0  0  0  0  0  0  0  0
   11.8948    6.1677    8.7605 C   0  0  0  0  0  0  0  0  0  0  0  0
   11.5268    4.9657    9.2980 O   0  0  0  0  0  0  0  0  0  0  0  0
   10.2780    4.3546   10.8201 H   0  0  0  0  0  0  0  0  0  0  0  0
    9.6122    6.9107   11.0220 H   0  0  0  0  0  0  0  0  0  0  0  0
    9.3237    6.1660    9.3516 H   0  0  0  0  0  0  0  0  0  0  0  0
   11.8208    7.6409   10.3065 H   0  0  0  0  0  0  0  0  0  0  0  0
   10.7546    8.0417    8.8475 H   0  0  0  0  0  0  0  0  0  0  0  0
   12.9935    6.3367    8.7383 H   0  0  0  0  0  0  0  0  0  0  0  0
   11.5731    6.2645    7.6815 H   0  0  0  0  0  0  0  0  0  0  0  0
  1  3  2  0
  1  4  1  0
  2  4  1  0
  1  5  1  0
  2  6  1  0
  5  6  1  0
  6  7  2  3
  5  8  1  0
  4 10  1  6
 10 11  2  0
 11 12  1  0
 12 13  2  0
 13 14  1  0
 10 15  1  0
 14 15  2  0
  9 16  2  0
  9 17  1  0
 14 18  1  0
 17 18  2  0
 18 19  1  0
 16 20  1  0
 19 20  2  0
  2 21  1  0
  7 22  1  0
  8 23  1  0
  8 24  1  0
  8 25  1  0
 11 26  1  0
 12 27  1  0
 13 28  1  0
 15 29  1  0
 16 30  1  0
 17 31  1  0
 19 32  1  0
 20 33  1  0
 34 35  1  0
 35 36  1  0
 36 37  1  0
 37 38  1  0
 38 34  1  0
 34 39  1  6
 35 40  1  0
 35 41  1  0
 36 42  1  0
 36 43  1  0
 37 44  1  0
 37 45  1  0
  4 34  1  0
M  END
>  <attachment_point>  (402) 
21

>  <score>  (402) 
<NA>

$$$$
4djw
     RDKit          3D

 46 48  0  0  0  0  0  0  0  0999 V2000
   22.4950   11.8750   22.5810 C   0  0  0  0  0  0  0  0  0  0  0  0
   22.5380    9.4930   22.4640 N   0  0  0  0  0  0  0  0  0  0  0  0
   22.3600   13.0630   22.3480 O   0  0  0  0  0  0  0  0  0  0  0  0
   22.3390   10.6680   21.5610 C   0  0  2  0  0  0  0  0  0  0  0  0
   22.7860   11.3350   23.8120 N   0  0  0  0  0  0  0  0  0  0  0  0
   22.7800    9.9140   23.7010 C   0  0  0  0  0  0  0  0  0  0  0  0
   22.9970    9.1110   24.7490 N   0  0  0  0  0  0  0  0  0  0  0  0
   23.0220   12.1410   25.0180 C   0  0  0  0  0  0  0  0  0  0  0  0
   29.1260    9.8230   21.7090 N   0  0  0  0  0  0  0  0  0  0  0  0
   23.4880   10.6920   20.5300 C   0  0  0  0  0  0  0  0  0  0  0  0
   23.2110   10.7890   19.1730 C   0  0  0  0  0  0  0  0  0  0  0  0
   24.2350   10.8650   18.2430 C   0  0  0  0  0  0  0  0  0  0  0  0
   25.5500   10.8410   18.6560 C   0  0  0  0  0  0  0  0  0  0  0  0
   25.8710   10.7460   20.0070 C   0  0  0  0  0  0  0  0  0  0  0  0
   24.8260   10.6610   20.9430 C   0  0  0  0  0  0  0  0  0  0  0  0
   29.8540   10.9130   21.4510 C   0  0  0  0  0  0  0  0  0  0  0  0
   27.8830    9.7800   21.2080 C   0  0  0  0  0  0  0  0  0  0  0  0
   27.3000   10.8010   20.4650 C   0  0  0  0  0  0  0  0  0  0  0  0
   28.0930   11.9190   20.2200 C   0  0  0  0  0  0  0  0  0  0  0  0
   29.3850   11.9780   20.7130 C   0  0  0  0  0  0  0  0  0  0  0  0
    0.0000    0.0000    0.0000 H   0  0  0  0  0  0  0  0  0  0  0  0
    0.0000    0.0000    0.0000 H   0  0  0  0  0  0  0  0  0  0  0  0
    0.0000    0.0000    0.0000 H   0  0  0  0  0  0  0  0  0  0  0  0
    0.0000    0.0000    0.0000 H   0  0  0  0  0  0  0  0  0  0  0  0
    0.0000    0.0000    0.0000 H   0  0  0  0  0  0  0  0  0  0  0  0
    0.0000    0.0000    0.0000 H   0  0  0  0  0  0  0  0  0  0  0  0
    0.0000    0.0000    0.0000 H   0  0  0  0  0  0  0  0  0  0  0  0
    0.0000    0.0000    0.0000 H   0  0  0  0  0  0  0  0  0  0  0  0
    0.0000    0.0000    0.0000 H   0  0  0  0  0  0  0  0  0  0  0  0
    0.0000    0.0000    0.0000 H   0  0  0  0  0  0  0  0  0  0  0  0
    0.0000    0.0000    0.0000 H   0  0  0  0  0  0  0  0  0  0  0  0
    0.0000    0.0000    0.0000 H   0  0  0  0  0  0  0  0  0  0  0  0
    0.0000    0.0000    0.0000 H   0  0  0  0  0  0  0  0  0  0  0  0
   10.7392    5.1285   10.3652 C   0  0  0  0  0  0  0  0  0  0  0  0
   11.5611    5.6609    9.3498 N   0  0  0  0  0  0  0  0  0  0  0  0
   12.8466    4.9911    9.3842 C   0  0  0  0  0  0  0  0  0  0  0  0
   13.7887    5.5068    8.3224 C   0  0  0  0  0  0  0  0  0  0  0  0
   14.0039    6.8792    8.5229 O   0  0  0  0  0  0  0  0  0  0  0  0
   10.9799    4.1656   10.7678 H   0  0  0  0  0  0  0  0  0  0  0  0
   10.0809    5.7810   10.8947 H   0  0  0  0  0  0  0  0  0  0  0  0
   11.0982    5.6215    8.4213 H   0  0  0  0  0  0  0  0  0  0  0  0
   13.3061    5.2379   10.3666 H   0  0  0  0  0  0  0  0  0  0  0  0
   12.7098    3.9017    9.2312 H   0  0  0  0  0  0  0  0  0  0  0  0
   13.3602    5.3445    7.3011 H   0  0  0  0  0  0  0  0  0  0  0  0
   14.7493    4.9715    8.4598 H   0  0  0  0  0  0  0  0  0  0  0  0
   14.9639    7.0531    8.7106 H   0  0  0  0  0  0  0  0  0  0  0  0
  1  3  2  0
  1  4  1  0
  2  4  1  0
  1  5  1  0
  2  6  1  0
  5  6  1  0
  6  7  2  3
  5  8  1  0
  4 10  1  0
 10 11  2  0
 11 12  1  0
 12 13  2  0
 13 14  1  0
 10 15  1  0
 14 15  2  0
  9 16  2  0
  9 17  1  0
 14 18  1  0
 17 18  2  0
 18 19  1  0
 16 20  1  0
 19 20  2  0
  2 21  1  0
  7 22  1  0
  8 23  1  0
  8 24  1  0
  8 25  1  0
 11 26  1  0
 12 27  1  0
 13 28  1  0
 15 29  1  0
 16 30  1  0
 17 31  1  0
 19 32  1  0
 20 33  1  0
 34 35  1  0
 35 36  1  0
 36 37  1  0
 37 38  1  0
 34 39  1  0
 34 40  1  0
 35 41  1  0
 36 42  1  0
 36 43  1  0
 37 44  1  0
 37 45  1  0
 38 46  1  0
  4 34  1  6
M  END
>  <attachment_point>  (403) 
21

>  <score>  (403) 
<NA>

$$$$
4djw
     RDKit          3D

 50 53  0  0  0  0  0  0  0  0999 V2000
   22.4950   11.8750   22.5810 C   0  0  0  0  0  0  0  0  0  0  0  0
   22.5380    9.4930   22.4640 N   0  0  0  0  0  0  0  0  0  0  0  0
   22.3600   13.0630   22.3480 O   0  0  0  0  0  0  0  0  0  0  0  0
   22.3390   10.6680   21.5610 C   0  0  2  0  0  0  0  0  0  0  0  0
   22.7860   11.3350   23.8120 N   0  0  0  0  0  0  0  0  0  0  0  0
   22.7800    9.9140   23.7010 C   0  0  0  0  0  0  0  0  0  0  0  0
   22.9970    9.1110   24.7490 N   0  0  0  0  0  0  0  0  0  0  0  0
   23.0220   12.1410   25.0180 C   0  0  0  0  0  0  0  0  0  0  0  0
   29.1260    9.8230   21.7090 N   0  0  0  0  0  0  0  0  0  0  0  0
   23.4880   10.6920   20.5300 C   0  0  0  0  0  0  0  0  0  0  0  0
   23.2110   10.7890   19.1730 C   0  0  0  0  0  0  0  0  0  0  0  0
   24.2350   10.8650   18.2430 C   0  0  0  0  0  0  0  0  0  0  0  0
   25.5500   10.8410   18.6560 C   0  0  0  0  0  0  0  0  0  0  0  0
   25.8710   10.7460   20.0070 C   0  0  0  0  0  0  0  0  0  0  0  0
   24.8260   10.6610   20.9430 C   0  0  0  0  0  0  0  0  0  0  0  0
   29.8540   10.9130   21.4510 C   0  0  0  0  0  0  0  0  0  0  0  0
   27.8830    9.7800   21.2080 C   0  0  0  0  0  0  0  0  0  0  0  0
   27.3000   10.8010   20.4650 C   0  0  0  0  0  0  0  0  0  0  0  0
   28.0930   11.9190   20.2200 C   0  0  0  0  0  0  0  0  0  0  0  0
   29.3850   11.9780   20.7130 C   0  0  0  0  0  0  0  0  0  0  0  0
    0.0000    0.0000    0.0000 H   0  0  0  0  0  0  0  0  0  0  0  0
    0.0000    0.0000    0.0000 H   0  0  0  0  0  0  0  0  0  0  0  0
    0.0000    0.0000    0.0000 H   0  0  0  0  0  0  0  0  0  0  0  0
    0.0000    0.0000    0.0000 H   0  0  0  0  0  0  0  0  0  0  0  0
    0.0000    0.0000    0.0000 H   0  0  0  0  0  0  0  0  0  0  0  0
    0.0000    0.0000    0.0000 H   0  0  0  0  0  0  0  0  0  0  0  0
    0.0000    0.0000    0.0000 H   0  0  0  0  0  0  0  0  0  0  0  0
    0.0000    0.0000    0.0000 H   0  0  0  0  0  0  0  0  0  0  0  0
    0.0000    0.0000    0.0000 H   0  0  0  0  0  0  0  0  0  0  0  0
    0.0000    0.0000    0.0000 H   0  0  0  0  0  0  0  0  0  0  0  0
    0.0000    0.0000    0.0000 H   0  0  0  0  0  0  0  0  0  0  0  0
    0.0000    0.0000    0.0000 H   0  0  0  0  0  0  0  0  0  0  0  0
    0.0000    0.0000    0.0000 H   0  0  0  0  0  0  0  0  0  0  0  0
   10.7567    5.1368   10.3820 C   0  0  0  0  0  0  0  0  0  0  0  0
   10.9951    3.7439   10.6780 C   0  0  0  0  0  0  0  0  0  0  0  0
   12.0913    3.0195   10.2374 C   0  0  0  0  0  0  0  0  0  0  0  0
   13.2055    3.5537    9.3817 C   0  0  0  0  0  0  0  0  0  0  0  0
   11.9742    1.7657   10.7079 N   0  0  0  0  0  0  0  0  0  0  0  0
   10.8600    1.7069   11.4086 N   0  0  0  0  0  0  0  0  0  0  0  0
   10.2352    2.9019   11.4108 C   0  0  0  0  0  0  0  0  0  0  0  0
    8.9782    3.1545   12.0959 C   0  0  0  0  0  0  0  0  0  0  0  0
    8.3771    2.2597   12.7442 O   0  0  0  0  0  0  0  0  0  0  0  0
    8.3740    4.4072   12.0684 O   0  0  0  0  0  0  0  0  0  0  0  0
    9.9880    5.6552   10.9034 H   0  0  0  0  0  0  0  0  0  0  0  0
   11.2916    5.5949    9.5827 H   0  0  0  0  0  0  0  0  0  0  0  0
   13.4097    2.7816    8.6314 H   0  0  0  0  0  0  0  0  0  0  0  0
   12.8406    4.4693    8.8363 H   0  0  0  0  0  0  0  0  0  0  0  0
   14.0665    3.8539    9.9891 H   0  0  0  0  0  0  0  0  0  0  0  0
   10.5574    0.8122   11.8774 H   0  0  0  0  0  0  0  0  0  0  0  0
    7.7369    4.7494   12.7668 H   0  0  0  0  0  0  0  0  0  0  0  0
  1  3  2  0
  1  4  1  0
  2  4  1  0
  1  5  1  0
  2  6  1  0
  5  6  1  0
  6  7  2  3
  5  8  1  0
  4 10  1  0
 10 11  2  0
 11 12  1  0
 12 13  2  0
 13 14  1  0
 10 15  1  0
 14 15  2  0
  9 16  2  0
  9 17  1  0
 14 18  1  0
 17 18  2  0
 18 19  1  0
 16 20  1  0
 19 20  2  0
  2 21  1  0
  7 22  1  0
  8 23  1  0
  8 24  1  0
  8 25  1  0
 11 26  1  0
 12 27  1  0
 13 28  1  0
 15 29  1  0
 16 30  1  0
 17 31  1  0
 19 32  1  0
 20 33  1  0
 34 35  1  0
 35 36  1  0
 36 37  1  0
 36 38  2  0
 38 39  1  0
 39 40  1  0
 40 41  1  0
 41 42  2  0
 41 43  1  0
 40 35  2  0
 34 44  1  0
 34 45  1  0
 37 46  1  0
 37 47  1  0
 37 48  1  0
 39 49  1  0
 43 50  1  0
  4 34  1  6
M  END
>  <attachment_point>  (404) 
21

>  <score>  (404) 
<NA>

$$$$
4djw
     RDKit          3D

 49 52  0  0  0  0  0  0  0  0999 V2000
   22.4950   11.8750   22.5810 C   0  0  0  0  0  0  0  0  0  0  0  0
   22.5380    9.4930   22.4640 N   0  0  0  0  0  0  0  0  0  0  0  0
   22.3600   13.0630   22.3480 O   0  0  0  0  0  0  0  0  0  0  0  0
   22.3390   10.6680   21.5610 C   0  0  2  0  0  0  0  0  0  0  0  0
   22.7860   11.3350   23.8120 N   0  0  0  0  0  0  0  0  0  0  0  0
   22.7800    9.9140   23.7010 C   0  0  0  0  0  0  0  0  0  0  0  0
   22.9970    9.1110   24.7490 N   0  0  0  0  0  0  0  0  0  0  0  0
   23.0220   12.1410   25.0180 C   0  0  0  0  0  0  0  0  0  0  0  0
   29.1260    9.8230   21.7090 N   0  0  0  0  0  0  0  0  0  0  0  0
   23.4880   10.6920   20.5300 C   0  0  0  0  0  0  0  0  0  0  0  0
   23.2110   10.7890   19.1730 C   0  0  0  0  0  0  0  0  0  0  0  0
   24.2350   10.8650   18.2430 C   0  0  0  0  0  0  0  0  0  0  0  0
   25.5500   10.8410   18.6560 C   0  0  0  0  0  0  0  0  0  0  0  0
   25.8710   10.7460   20.0070 C   0  0  0  0  0  0  0  0  0  0  0  0
   24.8260   10.6610   20.9430 C   0  0  0  0  0  0  0  0  0  0  0  0
   29.8540   10.9130   21.4510 C   0  0  0  0  0  0  0  0  0  0  0  0
   27.8830    9.7800   21.2080 C   0  0  0  0  0  0  0  0  0  0  0  0
   27.3000   10.8010   20.4650 C   0  0  0  0  0  0  0  0  0  0  0  0
   28.0930   11.9190   20.2200 C   0  0  0  0  0  0  0  0  0  0  0  0
   29.3850   11.9780   20.7130 C   0  0  0  0  0  0  0  0  0  0  0  0
    0.0000    0.0000    0.0000 H   0  0  0  0  0  0  0  0  0  0  0  0
    0.0000    0.0000    0.0000 H   0  0  0  0  0  0  0  0  0  0  0  0
    0.0000    0.0000    0.0000 H   0  0  0  0  0  0  0  0  0  0  0  0
    0.0000    0.0000    0.0000 H   0  0  0  0  0  0  0  0  0  0  0  0
    0.0000    0.0000    0.0000 H   0  0  0  0  0  0  0  0  0  0  0  0
    0.0000    0.0000    0.0000 H   0  0  0  0  0  0  0  0  0  0  0  0
    0.0000    0.0000    0.0000 H   0  0  0  0  0  0  0  0  0  0  0  0
    0.0000    0.0000    0.0000 H   0  0  0  0  0  0  0  0  0  0  0  0
    0.0000    0.0000    0.0000 H   0  0  0  0  0  0  0  0  0  0  0  0
    0.0000    0.0000    0.0000 H   0  0  0  0  0  0  0  0  0  0  0  0
    0.0000    0.0000    0.0000 H   0  0  0  0  0  0  0  0  0  0  0  0
    0.0000    0.0000    0.0000 H   0  0  0  0  0  0  0  0  0  0  0  0
    0.0000    0.0000    0.0000 H   0  0  0  0  0  0  0  0  0  0  0  0
   10.8487    5.1808   10.4709 C   0  0  0  0  0  0  0  0  0  0  0  0
   11.0633    4.1570    9.8212 O   0  0  0  0  0  0  0  0  0  0  0  0
    9.6418    6.0042   10.3706 C   0  0  0  0  0  0  0  0  0  0  0  0
    8.6186    5.6802    9.5083 C   0  0  0  0  0  0  0  0  0  0  0  0
    7.4914    6.4698    9.4303 C   0  0  0  0  0  0  0  0  0  0  0  0
    7.3344    7.6154   10.2073 C   0  0  0  0  0  0  0  0  0  0  0  0
    6.1106    8.4614   10.1142 C   0  0  0  0  0  0  0  0  0  0  0  0
    8.3539    7.9393   11.0674 C   0  0  0  0  0  0  0  0  0  0  0  0
    9.4731    7.1409   11.1338 C   0  0  0  0  0  0  0  0  0  0  0  0
    8.7206    4.8019    8.9016 H   0  0  0  0  0  0  0  0  0  0  0  0
    6.6799    6.2254    8.7559 H   0  0  0  0  0  0  0  0  0  0  0  0
    6.0098    9.0348   11.0470 H   0  0  0  0  0  0  0  0  0  0  0  0
    6.2561    9.2144    9.2995 H   0  0  0  0  0  0  0  0  0  0  0  0
    5.2429    7.8273    9.8843 H   0  0  0  0  0  0  0  0  0  0  0  0
    8.2476    8.8321   11.6826 H   0  0  0  0  0  0  0  0  0  0  0  0
   10.2657    7.4109   11.8163 H   0  0  0  0  0  0  0  0  0  0  0  0
  1  3  2  0
  1  4  1  0
  2  4  1  0
  1  5  1  0
  2  6  1  0
  5  6  1  0
  6  7  2  3
  5  8  1  0
  4 10  1  0
 10 11  2  0
 11 12  1  0
 12 13  2  0
 13 14  1  0
 10 15  1  0
 14 15  2  0
  9 16  2  0
  9 17  1  0
 14 18  1  0
 17 18  2  0
 18 19  1  0
 16 20  1  0
 19 20  2  0
  2 21  1  0
  7 22  1  0
  8 23  1  0
  8 24  1  0
  8 25  1  0
 11 26  1  0
 12 27  1  0
 13 28  1  0
 15 29  1  0
 16 30  1  0
 17 31  1  0
 19 32  1  0
 20 33  1  0
 34 35  2  0
 34 36  1  0
 36 37  2  0
 37 38  1  0
 38 39  2  0
 39 40  1  0
 39 41  1  0
 41 42  2  0
 42 36  1  0
 37 43  1  0
 38 44  1  0
 40 45  1  0
 40 46  1  0
 40 47  1  0
 41 48  1  0
 42 49  1  0
  4 34  1  6
M  END
>  <attachment_point>  (405) 
21

>  <score>  (405) 
<NA>

$$$$
4djw
     RDKit          3D

 45 47  0  0  0  0  0  0  0  0999 V2000
   22.4950   11.8750   22.5810 C   0  0  0  0  0  0  0  0  0  0  0  0
   22.5380    9.4930   22.4640 N   0  0  0  0  0  0  0  0  0  0  0  0
   22.3600   13.0630   22.3480 O   0  0  0  0  0  0  0  0  0  0  0  0
   22.3390   10.6680   21.5610 C   0  0  2  0  0  0  0  0  0  0  0  0
   22.7860   11.3350   23.8120 N   0  0  0  0  0  0  0  0  0  0  0  0
   22.7800    9.9140   23.7010 C   0  0  0  0  0  0  0  0  0  0  0  0
   22.9970    9.1110   24.7490 N   0  0  0  0  0  0  0  0  0  0  0  0
   23.0220   12.1410   25.0180 C   0  0  0  0  0  0  0  0  0  0  0  0
   29.1260    9.8230   21.7090 N   0  0  0  0  0  0  0  0  0  0  0  0
   23.4880   10.6920   20.5300 C   0  0  0  0  0  0  0  0  0  0  0  0
   23.2110   10.7890   19.1730 C   0  0  0  0  0  0  0  0  0  0  0  0
   24.2350   10.8650   18.2430 C   0  0  0  0  0  0  0  0  0  0  0  0
   25.5500   10.8410   18.6560 C   0  0  0  0  0  0  0  0  0  0  0  0
   25.8710   10.7460   20.0070 C   0  0  0  0  0  0  0  0  0  0  0  0
   24.8260   10.6610   20.9430 C   0  0  0  0  0  0  0  0  0  0  0  0
   29.8540   10.9130   21.4510 C   0  0  0  0  0  0  0  0  0  0  0  0
   27.8830    9.7800   21.2080 C   0  0  0  0  0  0  0  0  0  0  0  0
   27.3000   10.8010   20.4650 C   0  0  0  0  0  0  0  0  0  0  0  0
   28.0930   11.9190   20.2200 C   0  0  0  0  0  0  0  0  0  0  0  0
   29.3850   11.9780   20.7130 C   0  0  0  0  0  0  0  0  0  0  0  0
    0.0000    0.0000    0.0000 H   0  0  0  0  0  0  0  0  0  0  0  0
    0.0000    0.0000    0.0000 H   0  0  0  0  0  0  0  0  0  0  0  0
    0.0000    0.0000    0.0000 H   0  0  0  0  0  0  0  0  0  0  0  0
    0.0000    0.0000    0.0000 H   0  0  0  0  0  0  0  0  0  0  0  0
    0.0000    0.0000    0.0000 H   0  0  0  0  0  0  0  0  0  0  0  0
    0.0000    0.0000    0.0000 H   0  0  0  0  0  0  0  0  0  0  0  0
    0.0000    0.0000    0.0000 H   0  0  0  0  0  0  0  0  0  0  0  0
    0.0000    0.0000    0.0000 H   0  0  0  0  0  0  0  0  0  0  0  0
    0.0000    0.0000    0.0000 H   0  0  0  0  0  0  0  0  0  0  0  0
    0.0000    0.0000    0.0000 H   0  0  0  0  0  0  0  0  0  0  0  0
    0.0000    0.0000    0.0000 H   0  0  0  0  0  0  0  0  0  0  0  0
    0.0000    0.0000    0.0000 H   0  0  0  0  0  0  0  0  0  0  0  0
    0.0000    0.0000    0.0000 H   0  0  0  0  0  0  0  0  0  0  0  0
   10.8407    5.1770   10.4632 C   0  0  0  0  0  0  0  0  0  0  0  0
   10.2582    4.0600   11.1308 N   0  0  0  0  0  0  0  0  0  0  0  0
    9.2371    3.3862   10.4164 C   0  0  0  0  0  0  0  0  0  0  0  0
    8.7427    2.2304   11.2847 C   0  0  0  0  0  0  0  0  0  0  0  0
   10.2226    6.0638   10.3923 H   0  0  0  0  0  0  0  0  0  0  0  0
   11.4855    4.9484    9.6221 H   0  0  0  0  0  0  0  0  0  0  0  0
   10.8919    3.4468   11.6404 H   0  0  0  0  0  0  0  0  0  0  0  0
    9.7041    2.9165    9.5065 H   0  0  0  0  0  0  0  0  0  0  0  0
    8.4095    4.0022   10.0711 H   0  0  0  0  0  0  0  0  0  0  0  0
    8.9672    2.4616   12.3527 H   0  0  0  0  0  0  0  0  0  0  0  0
    7.6518    2.0862   11.1632 H   0  0  0  0  0  0  0  0  0  0  0  0
    9.2999    1.3107   11.0357 H   0  0  0  0  0  0  0  0  0  0  0  0
  1  3  2  0
  1  4  1  0
  2  4  1  0
  1  5  1  0
  2  6  1  0
  5  6  1  0
  6  7  2  3
  5  8  1  0
  4 10  1  0
 10 11  2  0
 11 12  1  0
 12 13  2  0
 13 14  1  0
 10 15  1  0
 14 15  2  0
  9 16  2  0
  9 17  1  0
 14 18  1  0
 17 18  2  0
 18 19  1  0
 16 20  1  0
 19 20  2  0
  2 21  1  0
  7 22  1  0
  8 23  1  0
  8 24  1  0
  8 25  1  0
 11 26  1  0
 12 27  1  0
 13 28  1  0
 15 29  1  0
 16 30  1  0
 17 31  1  0
 19 32  1  0
 20 33  1  0
 34 35  1  0
 35 36  1  0
 36 37  1  0
 34 38  1  0
 34 39  1  0
 35 40  1  0
 36 41  1  0
 36 42  1  0
 37 43  1  0
 37 44  1  0
 37 45  1  0
  4 34  1  6
M  END
>  <attachment_point>  (406) 
21

>  <score>  (406) 
<NA>

$$$$
4djw
     RDKit          3D

 45 48  0  0  0  0  0  0  0  0999 V2000
   22.4950   11.8750   22.5810 C   0  0  0  0  0  0  0  0  0  0  0  0
   22.5380    9.4930   22.4640 N   0  0  0  0  0  0  0  0  0  0  0  0
   22.3600   13.0630   22.3480 O   0  0  0  0  0  0  0  0  0  0  0  0
   22.3390   10.6680   21.5610 C   0  0  2  0  0  0  0  0  0  0  0  0
   22.7860   11.3350   23.8120 N   0  0  0  0  0  0  0  0  0  0  0  0
   22.7800    9.9140   23.7010 C   0  0  0  0  0  0  0  0  0  0  0  0
   22.9970    9.1110   24.7490 N   0  0  0  0  0  0  0  0  0  0  0  0
   23.0220   12.1410   25.0180 C   0  0  0  0  0  0  0  0  0  0  0  0
   29.1260    9.8230   21.7090 N   0  0  0  0  0  0  0  0  0  0  0  0
   23.4880   10.6920   20.5300 C   0  0  0  0  0  0  0  0  0  0  0  0
   23.2110   10.7890   19.1730 C   0  0  0  0  0  0  0  0  0  0  0  0
   24.2350   10.8650   18.2430 C   0  0  0  0  0  0  0  0  0  0  0  0
   25.5500   10.8410   18.6560 C   0  0  0  0  0  0  0  0  0  0  0  0
   25.8710   10.7460   20.0070 C   0  0  0  0  0  0  0  0  0  0  0  0
   24.8260   10.6610   20.9430 C   0  0  0  0  0  0  0  0  0  0  0  0
   29.8540   10.9130   21.4510 C   0  0  0  0  0  0  0  0  0  0  0  0
   27.8830    9.7800   21.2080 C   0  0  0  0  0  0  0  0  0  0  0  0
   27.3000   10.8010   20.4650 C   0  0  0  0  0  0  0  0  0  0  0  0
   28.0930   11.9190   20.2200 C   0  0  0  0  0  0  0  0  0  0  0  0
   29.3850   11.9780   20.7130 C   0  0  0  0  0  0  0  0  0  0  0  0
    0.0000    0.0000    0.0000 H   0  0  0  0  0  0  0  0  0  0  0  0
    0.0000    0.0000    0.0000 H   0  0  0  0  0  0  0  0  0  0  0  0
    0.0000    0.0000    0.0000 H   0  0  0  0  0  0  0  0  0  0  0  0
    0.0000    0.0000    0.0000 H   0  0  0  0  0  0  0  0  0  0  0  0
    0.0000    0.0000    0.0000 H   0  0  0  0  0  0  0  0  0  0  0  0
    0.0000    0.0000    0.0000 H   0  0  0  0  0  0  0  0  0  0  0  0
    0.0000    0.0000    0.0000 H   0  0  0  0  0  0  0  0  0  0  0  0
    0.0000    0.0000    0.0000 H   0  0  0  0  0  0  0  0  0  0  0  0
    0.0000    0.0000    0.0000 H   0  0  0  0  0  0  0  0  0  0  0  0
    0.0000    0.0000    0.0000 H   0  0  0  0  0  0  0  0  0  0  0  0
    0.0000    0.0000    0.0000 H   0  0  0  0  0  0  0  0  0  0  0  0
    0.0000    0.0000    0.0000 H   0  0  0  0  0  0  0  0  0  0  0  0
    0.0000    0.0000    0.0000 H   0  0  0  0  0  0  0  0  0  0  0  0
   10.8708    5.1914   10.4922 C   0  0  0  0  0  0  0  0  0  0  0  0
   11.3232    4.5549    9.3388 C   0  0  0  0  0  0  0  0  0  0  0  0
   10.4374    4.0782    8.3839 C   0  0  0  0  0  0  0  0  0  0  0  0
    9.0863    4.2498    8.6034 C   0  0  0  0  0  0  0  0  0  0  0  0
    8.6614    4.8861    9.7583 C   0  0  0  0  0  0  0  0  0  0  0  0
    9.5185    5.3611   10.7081 C   0  0  0  0  0  0  0  0  0  0  0  0
    9.0637    6.0280   11.9181 C   0  0  0  0  0  0  0  0  0  0  0  0
    8.6895    6.5430   12.8841 N   0  0  0  0  0  0  0  0  0  0  0  0
   12.3721    4.4162    9.1584 H   0  0  0  0  0  0  0  0  0  0  0  0
   10.7852    3.5829    7.4860 H   0  0  0  0  0  0  0  0  0  0  0  0
    8.3522    3.8955    7.8879 H   0  0  0  0  0  0  0  0  0  0  0  0
    7.5865    5.0304    9.9476 H   0  0  0  0  0  0  0  0  0  0  0  0
  1  3  2  0
  1  4  1  0
  2  4  1  0
  1  5  1  0
  2  6  1  0
  5  6  1  0
  6  7  2  3
  5  8  1  0
  4 10  1  6
 10 11  2  0
 11 12  1  0
 12 13  2  0
 13 14  1  0
 10 15  1  0
 14 15  2  0
  9 16  2  0
  9 17  1  0
 14 18  1  0
 17 18  2  0
 18 19  1  0
 16 20  1  0
 19 20  2  0
  2 21  1  0
  7 22  1  0
  8 23  1  0
  8 24  1  0
  8 25  1  0
 11 26  1  0
 12 27  1  0
 13 28  1  0
 15 29  1  0
 16 30  1  0
 17 31  1  0
 19 32  1  0
 20 33  1  0
 34 35  2  0
 35 36  1  0
 36 37  2  0
 37 38  1  0
 38 39  2  0
 39 40  1  0
 40 41  3  0
 39 34  1  0
 35 42  1  0
 36 43  1  0
 37 44  1  0
 38 45  1  0
  4 34  1  0
M  END
>  <attachment_point>  (407) 
21

>  <score>  (407) 
<NA>

$$$$
4djw
     RDKit          3D

 44 47  0  0  0  0  0  0  0  0999 V2000
   22.4950   11.8750   22.5810 C   0  0  0  0  0  0  0  0  0  0  0  0
   22.5380    9.4930   22.4640 N   0  0  0  0  0  0  0  0  0  0  0  0
   22.3600   13.0630   22.3480 O   0  0  0  0  0  0  0  0  0  0  0  0
   22.3390   10.6680   21.5610 C   0  0  2  0  0  0  0  0  0  0  0  0
   22.7860   11.3350   23.8120 N   0  0  0  0  0  0  0  0  0  0  0  0
   22.7800    9.9140   23.7010 C   0  0  0  0  0  0  0  0  0  0  0  0
   22.9970    9.1110   24.7490 N   0  0  0  0  0  0  0  0  0  0  0  0
   23.0220   12.1410   25.0180 C   0  0  0  0  0  0  0  0  0  0  0  0
   29.1260    9.8230   21.7090 N   0  0  0  0  0  0  0  0  0  0  0  0
   23.4880   10.6920   20.5300 C   0  0  0  0  0  0  0  0  0  0  0  0
   23.2110   10.7890   19.1730 C   0  0  0  0  0  0  0  0  0  0  0  0
   24.2350   10.8650   18.2430 C   0  0  0  0  0  0  0  0  0  0  0  0
   25.5500   10.8410   18.6560 C   0  0  0  0  0  0  0  0  0  0  0  0
   25.8710   10.7460   20.0070 C   0  0  0  0  0  0  0  0  0  0  0  0
   24.8260   10.6610   20.9430 C   0  0  0  0  0  0  0  0  0  0  0  0
   29.8540   10.9130   21.4510 C   0  0  0  0  0  0  0  0  0  0  0  0
   27.8830    9.7800   21.2080 C   0  0  0  0  0  0  0  0  0  0  0  0
   27.3000   10.8010   20.4650 C   0  0  0  0  0  0  0  0  0  0  0  0
   28.0930   11.9190   20.2200 C   0  0  0  0  0  0  0  0  0  0  0  0
   29.3850   11.9780   20.7130 C   0  0  0  0  0  0  0  0  0  0  0  0
    0.0000    0.0000    0.0000 H   0  0  0  0  0  0  0  0  0  0  0  0
    0.0000    0.0000    0.0000 H   0  0  0  0  0  0  0  0  0  0  0  0
    0.0000    0.0000    0.0000 H   0  0  0  0  0  0  0  0  0  0  0  0
    0.0000    0.0000    0.0000 H   0  0  0  0  0  0  0  0  0  0  0  0
    0.0000    0.0000    0.0000 H   0  0  0  0  0  0  0  0  0  0  0  0
    0.0000    0.0000    0.0000 H   0  0  0  0  0  0  0  0  0  0  0  0
    0.0000    0.0000    0.0000 H   0  0  0  0  0  0  0  0  0  0  0  0
    0.0000    0.0000    0.0000 H   0  0  0  0  0  0  0  0  0  0  0  0
    0.0000    0.0000    0.0000 H   0  0  0  0  0  0  0  0  0  0  0  0
    0.0000    0.0000    0.0000 H   0  0  0  0  0  0  0  0  0  0  0  0
    0.0000    0.0000    0.0000 H   0  0  0  0  0  0  0  0  0  0  0  0
    0.0000    0.0000    0.0000 H   0  0  0  0  0  0  0  0  0  0  0  0
    0.0000    0.0000    0.0000 H   0  0  0  0  0  0  0  0  0  0  0  0
   10.8773    5.1944   10.4984 C   0  0  0  0  0  0  0  0  0  0  0  0
   11.1089    4.0768    9.7122 C   0  0  0  0  0  0  0  0  0  0  0  0
   10.1415    3.6648    8.8195 C   0  0  0  0  0  0  0  0  0  0  0  0
   10.4610    2.2571    7.8451 Cl  0  0  0  0  0  0  0  0  0  0  0  0
    8.9724    4.3621    8.7233 C   0  0  0  0  0  0  0  0  0  0  0  0
    8.7109    5.4766    9.4899 C   0  0  0  0  0  0  0  0  0  0  0  0
    7.1870    6.3648    9.3476 Cl  0  0  0  0  0  0  0  0  0  0  0  0
    9.6771    5.8996   10.3910 C   0  0  0  0  0  0  0  0  0  0  0  0
   12.0343    3.5315    9.7938 H   0  0  0  0  0  0  0  0  0  0  0  0
    8.1985    4.0477    8.0218 H   0  0  0  0  0  0  0  0  0  0  0  0
    9.4937    6.7878   11.0162 H   0  0  0  0  0  0  0  0  0  0  0  0
  1  3  2  0
  1  4  1  0
  2  4  1  0
  1  5  1  0
  2  6  1  0
  5  6  1  0
  6  7  2  3
  5  8  1  0
  4 10  1  6
 10 11  2  0
 11 12  1  0
 12 13  2  0
 13 14  1  0
 10 15  1  0
 14 15  2  0
  9 16  2  0
  9 17  1  0
 14 18  1  0
 17 18  2  0
 18 19  1  0
 16 20  1  0
 19 20  2  0
  2 21  1  0
  7 22  1  0
  8 23  1  0
  8 24  1  0
  8 25  1  0
 11 26  1  0
 12 27  1  0
 13 28  1  0
 15 29  1  0
 16 30  1  0
 17 31  1  0
 19 32  1  0
 20 33  1  0
 34 35  2  0
 35 36  1  0
 36 37  1  0
 36 38  2  0
 38 39  1  0
 39 40  1  0
 39 41  2  0
 41 34  1  0
 35 42  1  0
 38 43  1  0
 41 44  1  0
  4 34  1  0
M  END
>  <attachment_point>  (408) 
21

>  <score>  (408) 
<NA>

$$$$
4djw
     RDKit          3D

 44 47  0  0  0  0  0  0  0  0999 V2000
   22.4950   11.8750   22.5810 C   0  0  0  0  0  0  0  0  0  0  0  0
   22.5380    9.4930   22.4640 N   0  0  0  0  0  0  0  0  0  0  0  0
   22.3600   13.0630   22.3480 O   0  0  0  0  0  0  0  0  0  0  0  0
   22.3390   10.6680   21.5610 C   0  0  2  0  0  0  0  0  0  0  0  0
   22.7860   11.3350   23.8120 N   0  0  0  0  0  0  0  0  0  0  0  0
   22.7800    9.9140   23.7010 C   0  0  0  0  0  0  0  0  0  0  0  0
   22.9970    9.1110   24.7490 N   0  0  0  0  0  0  0  0  0  0  0  0
   23.0220   12.1410   25.0180 C   0  0  0  0  0  0  0  0  0  0  0  0
   29.1260    9.8230   21.7090 N   0  0  0  0  0  0  0  0  0  0  0  0
   23.4880   10.6920   20.5300 C   0  0  0  0  0  0  0  0  0  0  0  0
   23.2110   10.7890   19.1730 C   0  0  0  0  0  0  0  0  0  0  0  0
   24.2350   10.8650   18.2430 C   0  0  0  0  0  0  0  0  0  0  0  0
   25.5500   10.8410   18.6560 C   0  0  0  0  0  0  0  0  0  0  0  0
   25.8710   10.7460   20.0070 C   0  0  0  0  0  0  0  0  0  0  0  0
   24.8260   10.6610   20.9430 C   0  0  0  0  0  0  0  0  0  0  0  0
   29.8540   10.9130   21.4510 C   0  0  0  0  0  0  0  0  0  0  0  0
   27.8830    9.7800   21.2080 C   0  0  0  0  0  0  0  0  0  0  0  0
   27.3000   10.8010   20.4650 C   0  0  0  0  0  0  0  0  0  0  0  0
   28.0930   11.9190   20.2200 C   0  0  0  0  0  0  0  0  0  0  0  0
   29.3850   11.9780   20.7130 C   0  0  0  0  0  0  0  0  0  0  0  0
    0.0000    0.0000    0.0000 H   0  0  0  0  0  0  0  0  0  0  0  0
    0.0000    0.0000    0.0000 H   0  0  0  0  0  0  0  0  0  0  0  0
    0.0000    0.0000    0.0000 H   0  0  0  0  0  0  0  0  0  0  0  0
    0.0000    0.0000    0.0000 H   0  0  0  0  0  0  0  0  0  0  0  0
    0.0000    0.0000    0.0000 H   0  0  0  0  0  0  0  0  0  0  0  0
    0.0000    0.0000    0.0000 H   0  0  0  0  0  0  0  0  0  0  0  0
    0.0000    0.0000    0.0000 H   0  0  0  0  0  0  0  0  0  0  0  0
    0.0000    0.0000    0.0000 H   0  0  0  0  0  0  0  0  0  0  0  0
    0.0000    0.0000    0.0000 H   0  0  0  0  0  0  0  0  0  0  0  0
    0.0000    0.0000    0.0000 H   0  0  0  0  0  0  0  0  0  0  0  0
    0.0000    0.0000    0.0000 H   0  0  0  0  0  0  0  0  0  0  0  0
    0.0000    0.0000    0.0000 H   0  0  0  0  0  0  0  0  0  0  0  0
    0.0000    0.0000    0.0000 H   0  0  0  0  0  0  0  0  0  0  0  0
   10.8390    5.1762   10.4615 C   0  0  0  0  0  0  0  0  0  0  0  0
   10.7801    3.8461   10.1772 C   0  0  0  0  0  0  0  0  0  0  0  0
    9.8315    3.4384    9.2695 N   0  0  0  0  0  0  0  0  0  0  0  0
    8.9916    4.3010    8.6799 C   0  0  0  0  0  0  0  0  0  0  0  0
    8.0032    3.8486    7.7293 N   0  0  0  0  0  0  0  0  0  0  0  0
    9.0851    5.6021    8.9897 N   0  0  0  0  0  0  0  0  0  0  0  0
   10.0054    6.0870    9.8857 C   0  0  0  0  0  0  0  0  0  0  0  0
   11.4369    3.1252   10.6303 H   0  0  0  0  0  0  0  0  0  0  0  0
    7.1038    3.4276    8.0639 H   0  0  0  0  0  0  0  0  0  0  0  0
    8.1548    3.9272    6.6986 H   0  0  0  0  0  0  0  0  0  0  0  0
   10.0547    7.1451   10.1141 H   0  0  0  0  0  0  0  0  0  0  0  0
  1  3  2  0
  1  4  1  0
  2  4  1  0
  1  5  1  0
  2  6  1  0
  5  6  1  0
  6  7  2  3
  5  8  1  0
  4 10  1  6
 10 11  2  0
 11 12  1  0
 12 13  2  0
 13 14  1  0
 10 15  1  0
 14 15  2  0
  9 16  2  0
  9 17  1  0
 14 18  1  0
 17 18  2  0
 18 19  1  0
 16 20  1  0
 19 20  2  0
  2 21  1  0
  7 22  1  0
  8 23  1  0
  8 24  1  0
  8 25  1  0
 11 26  1  0
 12 27  1  0
 13 28  1  0
 15 29  1  0
 16 30  1  0
 17 31  1  0
 19 32  1  0
 20 33  1  0
 34 35  2  0
 35 36  1  0
 36 37  2  0
 37 38  1  0
 37 39  1  0
 39 40  2  0
 40 34  1  0
 35 41  1  0
 38 42  1  0
 38 43  1  0
 40 44  1  0
  4 34  1  0
M  END
>  <attachment_point>  (409) 
21

>  <score>  (409) 
<NA>

$$$$
4djw
     RDKit          3D

 37 39  0  0  0  0  0  0  0  0999 V2000
   22.4950   11.8750   22.5810 C   0  0  0  0  0  0  0  0  0  0  0  0
   22.5380    9.4930   22.4640 N   0  0  0  0  0  0  0  0  0  0  0  0
   22.3600   13.0630   22.3480 O   0  0  0  0  0  0  0  0  0  0  0  0
   22.3390   10.6680   21.5610 C   0  0  2  0  0  0  0  0  0  0  0  0
   22.7860   11.3350   23.8120 N   0  0  0  0  0  0  0  0  0  0  0  0
   22.7800    9.9140   23.7010 C   0  0  0  0  0  0  0  0  0  0  0  0
   22.9970    9.1110   24.7490 N   0  0  0  0  0  0  0  0  0  0  0  0
   23.0220   12.1410   25.0180 C   0  0  0  0  0  0  0  0  0  0  0  0
   29.1260    9.8230   21.7090 N   0  0  0  0  0  0  0  0  0  0  0  0
   23.4880   10.6920   20.5300 C   0  0  0  0  0  0  0  0  0  0  0  0
   23.2110   10.7890   19.1730 C   0  0  0  0  0  0  0  0  0  0  0  0
   24.2350   10.8650   18.2430 C   0  0  0  0  0  0  0  0  0  0  0  0
   25.5500   10.8410   18.6560 C   0  0  0  0  0  0  0  0  0  0  0  0
   25.8710   10.7460   20.0070 C   0  0  0  0  0  0  0  0  0  0  0  0
   24.8260   10.6610   20.9430 C   0  0  0  0  0  0  0  0  0  0  0  0
   29.8540   10.9130   21.4510 C   0  0  0  0  0  0  0  0  0  0  0  0
   27.8830    9.7800   21.2080 C   0  0  0  0  0  0  0  0  0  0  0  0
   27.3000   10.8010   20.4650 C   0  0  0  0  0  0  0  0  0  0  0  0
   28.0930   11.9190   20.2200 C   0  0  0  0  0  0  0  0  0  0  0  0
   29.3850   11.9780   20.7130 C   0  0  0  0  0  0  0  0  0  0  0  0
    0.0000    0.0000    0.0000 H   0  0  0  0  0  0  0  0  0  0  0  0
    0.0000    0.0000    0.0000 H   0  0  0  0  0  0  0  0  0  0  0  0
    0.0000    0.0000    0.0000 H   0  0  0  0  0  0  0  0  0  0  0  0
    0.0000    0.0000    0.0000 H   0  0  0  0  0  0  0  0  0  0  0  0
    0.0000    0.0000    0.0000 H   0  0  0  0  0  0  0  0  0  0  0  0
    0.0000    0.0000    0.0000 H   0  0  0  0  0  0  0  0  0  0  0  0
    0.0000    0.0000    0.0000 H   0  0  0  0  0  0  0  0  0  0  0  0
    0.0000    0.0000    0.0000 H   0  0  0  0  0  0  0  0  0  0  0  0
    0.0000    0.0000    0.0000 H   0  0  0  0  0  0  0  0  0  0  0  0
    0.0000    0.0000    0.0000 H   0  0  0  0  0  0  0  0  0  0  0  0
    0.0000    0.0000    0.0000 H   0  0  0  0  0  0  0  0  0  0  0  0
    0.0000    0.0000    0.0000 H   0  0  0  0  0  0  0  0  0  0  0  0
    0.0000    0.0000    0.0000 H   0  0  0  0  0  0  0  0  0  0  0  0
   10.8376    5.1755   10.4602 C   0  0  0  0  0  0  0  0  0  0  0  0
   10.4470    6.5528    9.4601 Cl  0  0  0  0  0  0  0  0  0  0  0  0
   11.4064    4.3872    9.9482 H   0  0  0  0  0  0  0  0  0  0  0  0
   10.0304    4.8202   11.1044 H   0  0  0  0  0  0  0  0  0  0  0  0
  1  3  2  0
  1  4  1  0
  2  4  1  0
  1  5  1  0
  2  6  1  0
  5  6  1  0
  6  7  2  3
  5  8  1  0
  4 10  1  0
 10 11  2  0
 11 12  1  0
 12 13  2  0
 13 14  1  0
 10 15  1  0
 14 15  2  0
  9 16  2  0
  9 17  1  0
 14 18  1  0
 17 18  2  0
 18 19  1  0
 16 20  1  0
 19 20  2  0
  2 21  1  0
  7 22  1  0
  8 23  1  0
  8 24  1  0
  8 25  1  0
 11 26  1  0
 12 27  1  0
 13 28  1  0
 15 29  1  0
 16 30  1  0
 17 31  1  0
 19 32  1  0
 20 33  1  0
 34 35  1  0
 34 36  1  0
 34 37  1  0
  4 34  1  6
M  END
>  <attachment_point>  (410) 
21

>  <score>  (410) 
<NA>

$$$$
4djw
     RDKit          3D

 47 49  0  0  0  0  0  0  0  0999 V2000
   22.4950   11.8750   22.5810 C   0  0  0  0  0  0  0  0  0  0  0  0
   22.5380    9.4930   22.4640 N   0  0  0  0  0  0  0  0  0  0  0  0
   22.3600   13.0630   22.3480 O   0  0  0  0  0  0  0  0  0  0  0  0
   22.3390   10.6680   21.5610 C   0  0  2  0  0  0  0  0  0  0  0  0
   22.7860   11.3350   23.8120 N   0  0  0  0  0  0  0  0  0  0  0  0
   22.7800    9.9140   23.7010 C   0  0  0  0  0  0  0  0  0  0  0  0
   22.9970    9.1110   24.7490 N   0  0  0  0  0  0  0  0  0  0  0  0
   23.0220   12.1410   25.0180 C   0  0  0  0  0  0  0  0  0  0  0  0
   29.1260    9.8230   21.7090 N   0  0  0  0  0  0  0  0  0  0  0  0
   23.4880   10.6920   20.5300 C   0  0  0  0  0  0  0  0  0  0  0  0
   23.2110   10.7890   19.1730 C   0  0  0  0  0  0  0  0  0  0  0  0
   24.2350   10.8650   18.2430 C   0  0  0  0  0  0  0  0  0  0  0  0
   25.5500   10.8410   18.6560 C   0  0  0  0  0  0  0  0  0  0  0  0
   25.8710   10.7460   20.0070 C   0  0  0  0  0  0  0  0  0  0  0  0
   24.8260   10.6610   20.9430 C   0  0  0  0  0  0  0  0  0  0  0  0
   29.8540   10.9130   21.4510 C   0  0  0  0  0  0  0  0  0  0  0  0
   27.8830    9.7800   21.2080 C   0  0  0  0  0  0  0  0  0  0  0  0
   27.3000   10.8010   20.4650 C   0  0  0  0  0  0  0  0  0  0  0  0
   28.0930   11.9190   20.2200 C   0  0  0  0  0  0  0  0  0  0  0  0
   29.3850   11.9780   20.7130 C   0  0  0  0  0  0  0  0  0  0  0  0
    0.0000    0.0000    0.0000 H   0  0  0  0  0  0  0  0  0  0  0  0
    0.0000    0.0000    0.0000 H   0  0  0  0  0  0  0  0  0  0  0  0
    0.0000    0.0000    0.0000 H   0  0  0  0  0  0  0  0  0  0  0  0
    0.0000    0.0000    0.0000 H   0  0  0  0  0  0  0  0  0  0  0  0
    0.0000    0.0000    0.0000 H   0  0  0  0  0  0  0  0  0  0  0  0
    0.0000    0.0000    0.0000 H   0  0  0  0  0  0  0  0  0  0  0  0
    0.0000    0.0000    0.0000 H   0  0  0  0  0  0  0  0  0  0  0  0
    0.0000    0.0000    0.0000 H   0  0  0  0  0  0  0  0  0  0  0  0
    0.0000    0.0000    0.0000 H   0  0  0  0  0  0  0  0  0  0  0  0
    0.0000    0.0000    0.0000 H   0  0  0  0  0  0  0  0  0  0  0  0
    0.0000    0.0000    0.0000 H   0  0  0  0  0  0  0  0  0  0  0  0
    0.0000    0.0000    0.0000 H   0  0  0  0  0  0  0  0  0  0  0  0
    0.0000    0.0000    0.0000 H   0  0  0  0  0  0  0  0  0  0  0  0
   10.8297    5.1717   10.4525 N   0  0  0  0  0  0  0  0  0  0  0  0
    9.5444    5.0924   10.9124 C   0  0  0  0  0  0  0  0  0  0  0  0
    9.2372    5.4079   12.0862 O   0  0  0  0  0  0  0  0  0  0  0  0
    8.4737    4.6204   10.0039 C   0  0  0  0  0  0  0  0  0  0  0  0
    7.1270    4.5992   10.6825 C   0  0  0  0  0  0  0  0  0  0  0  0
    6.1138    4.1048    9.6715 C   0  0  0  0  0  0  0  0  0  0  0  0
   11.2007    4.9558    9.5602 H   0  0  0  0  0  0  0  0  0  0  0  0
    8.7707    3.6131    9.6259 H   0  0  0  0  0  0  0  0  0  0  0  0
    8.4397    5.3318    9.1540 H   0  0  0  0  0  0  0  0  0  0  0  0
    7.1276    4.0344   11.6176 H   0  0  0  0  0  0  0  0  0  0  0  0
    6.8832    5.6630   10.9284 H   0  0  0  0  0  0  0  0  0  0  0  0
    5.0997    4.5108    9.8750 H   0  0  0  0  0  0  0  0  0  0  0  0
    6.1175    2.9893    9.7487 H   0  0  0  0  0  0  0  0  0  0  0  0
    6.4415    4.3657    8.6376 H   0  0  0  0  0  0  0  0  0  0  0  0
  1  3  2  0
  1  4  1  0
  2  4  1  0
  1  5  1  0
  2  6  1  0
  5  6  1  0
  6  7  2  3
  5  8  1  0
  4 10  1  0
 10 11  2  0
 11 12  1  0
 12 13  2  0
 13 14  1  0
 10 15  1  0
 14 15  2  0
  9 16  2  0
  9 17  1  0
 14 18  1  0
 17 18  2  0
 18 19  1  0
 16 20  1  0
 19 20  2  0
  2 21  1  0
  7 22  1  0
  8 23  1  0
  8 24  1  0
  8 25  1  0
 11 26  1  0
 12 27  1  0
 13 28  1  0
 15 29  1  0
 16 30  1  0
 17 31  1  0
 19 32  1  0
 20 33  1  0
 34 35  1  0
 35 36  2  0
 35 37  1  0
 37 38  1  0
 38 39  1  0
 34 40  1  0
 37 41  1  0
 37 42  1  0
 38 43  1  0
 38 44  1  0
 39 45  1  0
 39 46  1  0
 39 47  1  0
  4 34  1  6
M  END
>  <attachment_point>  (411) 
21

>  <score>  (411) 
<NA>

$$$$
4djw
     RDKit          3D

 47 50  0  0  0  0  0  0  0  0999 V2000
   22.4950   11.8750   22.5810 C   0  0  0  0  0  0  0  0  0  0  0  0
   22.5380    9.4930   22.4640 N   0  0  0  0  0  0  0  0  0  0  0  0
   22.3600   13.0630   22.3480 O   0  0  0  0  0  0  0  0  0  0  0  0
   22.3390   10.6680   21.5610 C   0  0  2  0  0  0  0  0  0  0  0  0
   22.7860   11.3350   23.8120 N   0  0  0  0  0  0  0  0  0  0  0  0
   22.7800    9.9140   23.7010 C   0  0  0  0  0  0  0  0  0  0  0  0
   22.9970    9.1110   24.7490 N   0  0  0  0  0  0  0  0  0  0  0  0
   23.0220   12.1410   25.0180 C   0  0  0  0  0  0  0  0  0  0  0  0
   29.1260    9.8230   21.7090 N   0  0  0  0  0  0  0  0  0  0  0  0
   23.4880   10.6920   20.5300 C   0  0  0  0  0  0  0  0  0  0  0  0
   23.2110   10.7890   19.1730 C   0  0  0  0  0  0  0  0  0  0  0  0
   24.2350   10.8650   18.2430 C   0  0  0  0  0  0  0  0  0  0  0  0
   25.5500   10.8410   18.6560 C   0  0  0  0  0  0  0  0  0  0  0  0
   25.8710   10.7460   20.0070 C   0  0  0  0  0  0  0  0  0  0  0  0
   24.8260   10.6610   20.9430 C   0  0  0  0  0  0  0  0  0  0  0  0
   29.8540   10.9130   21.4510 C   0  0  0  0  0  0  0  0  0  0  0  0
   27.8830    9.7800   21.2080 C   0  0  0  0  0  0  0  0  0  0  0  0
   27.3000   10.8010   20.4650 C   0  0  0  0  0  0  0  0  0  0  0  0
   28.0930   11.9190   20.2200 C   0  0  0  0  0  0  0  0  0  0  0  0
   29.3850   11.9780   20.7130 C   0  0  0  0  0  0  0  0  0  0  0  0
    0.0000    0.0000    0.0000 H   0  0  0  0  0  0  0  0  0  0  0  0
    0.0000    0.0000    0.0000 H   0  0  0  0  0  0  0  0  0  0  0  0
    0.0000    0.0000    0.0000 H   0  0  0  0  0  0  0  0  0  0  0  0
    0.0000    0.0000    0.0000 H   0  0  0  0  0  0  0  0  0  0  0  0
    0.0000    0.0000    0.0000 H   0  0  0  0  0  0  0  0  0  0  0  0
    0.0000    0.0000    0.0000 H   0  0  0  0  0  0  0  0  0  0  0  0
    0.0000    0.0000    0.0000 H   0  0  0  0  0  0  0  0  0  0  0  0
    0.0000    0.0000    0.0000 H   0  0  0  0  0  0  0  0  0  0  0  0
    0.0000    0.0000    0.0000 H   0  0  0  0  0  0  0  0  0  0  0  0
    0.0000    0.0000    0.0000 H   0  0  0  0  0  0  0  0  0  0  0  0
    0.0000    0.0000    0.0000 H   0  0  0  0  0  0  0  0  0  0  0  0
    0.0000    0.0000    0.0000 H   0  0  0  0  0  0  0  0  0  0  0  0
    0.0000    0.0000    0.0000 H   0  0  0  0  0  0  0  0  0  0  0  0
   10.8604    5.1864   10.4822 S   0  0  0  0  0  6  0  0  0  0  0  0
   11.0366    3.7110   10.3056 O   0  0  0  0  0  0  0  0  0  0  0  0
    9.4788    5.4033   11.0184 O   0  0  0  0  0  0  0  0  0  0  0  0
   11.0287    6.0516    8.9626 C   0  0  0  0  0  0  0  0  0  0  0  0
   10.3447    7.2219    8.7127 C   0  0  0  0  0  0  0  0  0  0  0  0
   10.4690    7.9162    7.5147 C   0  0  0  0  0  0  0  0  0  0  0  0
   11.2987    7.4462    6.5159 C   0  0  0  0  0  0  0  0  0  0  0  0
   11.4444    8.3336    5.0108 Cl  0  0  0  0  0  0  0  0  0  0  0  0
   11.9896    6.2734    6.7553 C   0  0  0  0  0  0  0  0  0  0  0  0
   11.8538    5.5936    7.9566 C   0  0  0  0  0  0  0  0  0  0  0  0
    9.6985    7.5787    9.5034 H   0  0  0  0  0  0  0  0  0  0  0  0
    9.9127    8.8430    7.3460 H   0  0  0  0  0  0  0  0  0  0  0  0
   12.6375    5.9152    5.9634 H   0  0  0  0  0  0  0  0  0  0  0  0
   12.4062    4.6695    8.1293 H   0  0  0  0  0  0  0  0  0  0  0  0
  1  3  2  0
  1  4  1  0
  2  4  1  0
  1  5  1  0
  2  6  1  0
  5  6  1  0
  6  7  2  3
  5  8  1  0
  4 10  1  6
 10 11  2  0
 11 12  1  0
 12 13  2  0
 13 14  1  0
 10 15  1  0
 14 15  2  0
  9 16  2  0
  9 17  1  0
 14 18  1  0
 17 18  2  0
 18 19  1  0
 16 20  1  0
 19 20  2  0
  2 21  1  0
  7 22  1  0
  8 23  1  0
  8 24  1  0
  8 25  1  0
 11 26  1  0
 12 27  1  0
 13 28  1  0
 15 29  1  0
 16 30  1  0
 17 31  1  0
 19 32  1  0
 20 33  1  0
 34 35  2  0
 34 36  2  0
 34 37  1  0
 37 38  2  0
 38 39  1  0
 39 40  2  0
 40 41  1  0
 40 42  1  0
 42 43  2  0
 43 37  1  0
 38 44  1  0
 39 45  1  0
 42 46  1  0
 43 47  1  0
  4 34  1  0
M  END
>  <attachment_point>  (412) 
21

>  <score>  (412) 
<NA>

$$$$
4djw
     RDKit          3D

 37 39  0  0  0  0  0  0  0  0999 V2000
   22.4950   11.8750   22.5810 C   0  0  0  0  0  0  0  0  0  0  0  0
   22.5380    9.4930   22.4640 N   0  0  0  0  0  0  0  0  0  0  0  0
   22.3600   13.0630   22.3480 O   0  0  0  0  0  0  0  0  0  0  0  0
   22.3390   10.6680   21.5610 C   0  0  2  0  0  0  0  0  0  0  0  0
   22.7860   11.3350   23.8120 N   0  0  0  0  0  0  0  0  0  0  0  0
   22.7800    9.9140   23.7010 C   0  0  0  0  0  0  0  0  0  0  0  0
   22.9970    9.1110   24.7490 N   0  0  0  0  0  0  0  0  0  0  0  0
   23.0220   12.1410   25.0180 C   0  0  0  0  0  0  0  0  0  0  0  0
   29.1260    9.8230   21.7090 N   0  0  0  0  0  0  0  0  0  0  0  0
   23.4880   10.6920   20.5300 C   0  0  0  0  0  0  0  0  0  0  0  0
   23.2110   10.7890   19.1730 C   0  0  0  0  0  0  0  0  0  0  0  0
   24.2350   10.8650   18.2430 C   0  0  0  0  0  0  0  0  0  0  0  0
   25.5500   10.8410   18.6560 C   0  0  0  0  0  0  0  0  0  0  0  0
   25.8710   10.7460   20.0070 C   0  0  0  0  0  0  0  0  0  0  0  0
   24.8260   10.6610   20.9430 C   0  0  0  0  0  0  0  0  0  0  0  0
   29.8540   10.9130   21.4510 C   0  0  0  0  0  0  0  0  0  0  0  0
   27.8830    9.7800   21.2080 C   0  0  0  0  0  0  0  0  0  0  0  0
   27.3000   10.8010   20.4650 C   0  0  0  0  0  0  0  0  0  0  0  0
   28.0930   11.9190   20.2200 C   0  0  0  0  0  0  0  0  0  0  0  0
   29.3850   11.9780   20.7130 C   0  0  0  0  0  0  0  0  0  0  0  0
    0.0000    0.0000    0.0000 H   0  0  0  0  0  0  0  0  0  0  0  0
    0.0000    0.0000    0.0000 H   0  0  0  0  0  0  0  0  0  0  0  0
    0.0000    0.0000    0.0000 H   0  0  0  0  0  0  0  0  0  0  0  0
    0.0000    0.0000    0.0000 H   0  0  0  0  0  0  0  0  0  0  0  0
    0.0000    0.0000    0.0000 H   0  0  0  0  0  0  0  0  0  0  0  0
    0.0000    0.0000    0.0000 H   0  0  0  0  0  0  0  0  0  0  0  0
    0.0000    0.0000    0.0000 H   0  0  0  0  0  0  0  0  0  0  0  0
    0.0000    0.0000    0.0000 H   0  0  0  0  0  0  0  0  0  0  0  0
    0.0000    0.0000    0.0000 H   0  0  0  0  0  0  0  0  0  0  0  0
    0.0000    0.0000    0.0000 H   0  0  0  0  0  0  0  0  0  0  0  0
    0.0000    0.0000    0.0000 H   0  0  0  0  0  0  0  0  0  0  0  0
    0.0000    0.0000    0.0000 H   0  0  0  0  0  0  0  0  0  0  0  0
    0.0000    0.0000    0.0000 H   0  0  0  0  0  0  0  0  0  0  0  0
   10.8494    5.1812   10.4716 C   0  0  0  0  0  0  0  0  0  0  0  0
   11.4306    5.3373    9.2479 F   0  0  0  0  0  0  0  0  0  0  0  0
    9.7086    5.9061   10.6454 F   0  0  0  0  0  0  0  0  0  0  0  0
   10.7256    4.1217   10.7387 H   0  0  0  0  0  0  0  0  0  0  0  0
  1  3  2  0
  1  4  1  0
  2  4  1  0
  1  5  1  0
  2  6  1  0
  5  6  1  0
  6  7  2  3
  5  8  1  0
  4 10  1  0
 10 11  2  0
 11 12  1  0
 12 13  2  0
 13 14  1  0
 10 15  1  0
 14 15  2  0
  9 16  2  0
  9 17  1  0
 14 18  1  0
 17 18  2  0
 18 19  1  0
 16 20  1  0
 19 20  2  0
  2 21  1  0
  7 22  1  0
  8 23  1  0
  8 24  1  0
  8 25  1  0
 11 26  1  0
 12 27  1  0
 13 28  1  0
 15 29  1  0
 16 30  1  0
 17 31  1  0
 19 32  1  0
 20 33  1  0
 34 35  1  0
 34 36  1  0
 34 37  1  0
  4 34  1  6
M  END
>  <attachment_point>  (413) 
21

>  <score>  (413) 
<NA>

$$$$
4djw
     RDKit          3D

 56 59  0  0  0  0  0  0  0  0999 V2000
   22.4950   11.8750   22.5810 C   0  0  0  0  0  0  0  0  0  0  0  0
   22.5380    9.4930   22.4640 N   0  0  0  0  0  0  0  0  0  0  0  0
   22.3600   13.0630   22.3480 O   0  0  0  0  0  0  0  0  0  0  0  0
   22.3390   10.6680   21.5610 C   0  0  2  0  0  0  0  0  0  0  0  0
   22.7860   11.3350   23.8120 N   0  0  0  0  0  0  0  0  0  0  0  0
   22.7800    9.9140   23.7010 C   0  0  0  0  0  0  0  0  0  0  0  0
   22.9970    9.1110   24.7490 N   0  0  0  0  0  0  0  0  0  0  0  0
   23.0220   12.1410   25.0180 C   0  0  0  0  0  0  0  0  0  0  0  0
   29.1260    9.8230   21.7090 N   0  0  0  0  0  0  0  0  0  0  0  0
   23.4880   10.6920   20.5300 C   0  0  0  0  0  0  0  0  0  0  0  0
   23.2110   10.7890   19.1730 C   0  0  0  0  0  0  0  0  0  0  0  0
   24.2350   10.8650   18.2430 C   0  0  0  0  0  0  0  0  0  0  0  0
   25.5500   10.8410   18.6560 C   0  0  0  0  0  0  0  0  0  0  0  0
   25.8710   10.7460   20.0070 C   0  0  0  0  0  0  0  0  0  0  0  0
   24.8260   10.6610   20.9430 C   0  0  0  0  0  0  0  0  0  0  0  0
   29.8540   10.9130   21.4510 C   0  0  0  0  0  0  0  0  0  0  0  0
   27.8830    9.7800   21.2080 C   0  0  0  0  0  0  0  0  0  0  0  0
   27.3000   10.8010   20.4650 C   0  0  0  0  0  0  0  0  0  0  0  0
   28.0930   11.9190   20.2200 C   0  0  0  0  0  0  0  0  0  0  0  0
   29.3850   11.9780   20.7130 C   0  0  0  0  0  0  0  0  0  0  0  0
    0.0000    0.0000    0.0000 H   0  0  0  0  0  0  0  0  0  0  0  0
    0.0000    0.0000    0.0000 H   0  0  0  0  0  0  0  0  0  0  0  0
    0.0000    0.0000    0.0000 H   0  0  0  0  0  0  0  0  0  0  0  0
    0.0000    0.0000    0.0000 H   0  0  0  0  0  0  0  0  0  0  0  0
    0.0000    0.0000    0.0000 H   0  0  0  0  0  0  0  0  0  0  0  0
    0.0000    0.0000    0.0000 H   0  0  0  0  0  0  0  0  0  0  0  0
    0.0000    0.0000    0.0000 H   0  0  0  0  0  0  0  0  0  0  0  0
    0.0000    0.0000    0.0000 H   0  0  0  0  0  0  0  0  0  0  0  0
    0.0000    0.0000    0.0000 H   0  0  0  0  0  0  0  0  0  0  0  0
    0.0000    0.0000    0.0000 H   0  0  0  0  0  0  0  0  0  0  0  0
    0.0000    0.0000    0.0000 H   0  0  0  0  0  0  0  0  0  0  0  0
    0.0000    0.0000    0.0000 H   0  0  0  0  0  0  0  0  0  0  0  0
    0.0000    0.0000    0.0000 H   0  0  0  0  0  0  0  0  0  0  0  0
   10.9340    5.2215   10.5532 O   0  0  0  0  0  0  0  0  0  0  0  0
   10.8018    3.8139   10.6268 C   0  0  0  0  0  0  0  0  0  0  0  0
    9.7696    3.4439    9.6090 C   0  0  0  0  0  0  0  0  0  0  0  0
    9.4933    1.9654    9.5325 C   0  0  0  0  0  0  0  0  0  0  0  0
   10.6084    1.1687    9.2054 N   0  0  0  0  0  0  0  0  0  0  0  0
   10.2633   -0.2062    9.1135 C   0  0  0  0  0  0  0  0  0  0  0  0
   10.9462   -0.7744    7.8933 C   0  0  0  0  0  0  0  0  0  0  0  0
   11.6280    0.3832    7.2193 C   0  0  0  0  0  0  0  0  0  0  0  0
   11.4541    1.5594    8.1555 C   0  0  0  0  0  0  0  0  0  0  0  0
   11.8067    3.3829   10.4164 H   0  0  0  0  0  0  0  0  0  0  0  0
   10.4756    3.6078   11.6705 H   0  0  0  0  0  0  0  0  0  0  0  0
    8.8057    3.9152    9.9665 H   0  0  0  0  0  0  0  0  0  0  0  0
    9.9815    3.9032    8.6444 H   0  0  0  0  0  0  0  0  0  0  0  0
    8.6040    1.8429    8.8815 H   0  0  0  0  0  0  0  0  0  0  0  0
    9.1293    1.6684   10.5579 H   0  0  0  0  0  0  0  0  0  0  0  0
   10.6181   -0.7190   10.0319 H   0  0  0  0  0  0  0  0  0  0  0  0
    9.1656   -0.3452    9.0010 H   0  0  0  0  0  0  0  0  0  0  0  0
   10.2019   -1.2210    7.2025 H   0  0  0  0  0  0  0  0  0  0  0  0
   11.6527   -1.5961    8.1414 H   0  0  0  0  0  0  0  0  0  0  0  0
   11.1413    0.6439    6.2529 H   0  0  0  0  0  0  0  0  0  0  0  0
   12.6763    0.1577    7.0280 H   0  0  0  0  0  0  0  0  0  0  0  0
   11.1780    2.4571    7.5973 H   0  0  0  0  0  0  0  0  0  0  0  0
   12.4757    1.7587    8.5946 H   0  0  0  0  0  0  0  0  0  0  0  0
  1  3  2  0
  1  4  1  0
  2  4  1  0
  1  5  1  0
  2  6  1  0
  5  6  1  0
  6  7  2  3
  5  8  1  0
  4 10  1  0
 10 11  2  0
 11 12  1  0
 12 13  2  0
 13 14  1  0
 10 15  1  0
 14 15  2  0
  9 16  2  0
  9 17  1  0
 14 18  1  0
 17 18  2  0
 18 19  1  0
 16 20  1  0
 19 20  2  0
  2 21  1  0
  7 22  1  0
  8 23  1  0
  8 24  1  0
  8 25  1  0
 11 26  1  0
 12 27  1  0
 13 28  1  0
 15 29  1  0
 16 30  1  0
 17 31  1  0
 19 32  1  0
 20 33  1  0
 34 35  1  0
 35 36  1  0
 36 37  1  0
 37 38  1  0
 38 39  1  0
 39 40  1  0
 40 41  1  0
 41 42  1  0
 42 38  1  0
 35 43  1  0
 35 44  1  0
 36 45  1  0
 36 46  1  0
 37 47  1  0
 37 48  1  0
 39 49  1  0
 39 50  1  0
 40 51  1  0
 40 52  1  0
 41 53  1  0
 41 54  1  0
 42 55  1  0
 42 56  1  0
  4 34  1  6
M  END
>  <attachment_point>  (414) 
21

>  <score>  (414) 
<NA>

$$$$
4djw
     RDKit          3D

 40 43  0  0  0  0  0  0  0  0999 V2000
   22.4950   11.8750   22.5810 C   0  0  0  0  0  0  0  0  0  0  0  0
   22.5380    9.4930   22.4640 N   0  0  0  0  0  0  0  0  0  0  0  0
   22.3600   13.0630   22.3480 O   0  0  0  0  0  0  0  0  0  0  0  0
   22.3390   10.6680   21.5610 C   0  0  2  0  0  0  0  0  0  0  0  0
   22.7860   11.3350   23.8120 N   0  0  0  0  0  0  0  0  0  0  0  0
   22.7800    9.9140   23.7010 C   0  0  0  0  0  0  0  0  0  0  0  0
   22.9970    9.1110   24.7490 N   0  0  0  0  0  0  0  0  0  0  0  0
   23.0220   12.1410   25.0180 C   0  0  0  0  0  0  0  0  0  0  0  0
   29.1260    9.8230   21.7090 N   0  0  0  0  0  0  0  0  0  0  0  0
   23.4880   10.6920   20.5300 C   0  0  0  0  0  0  0  0  0  0  0  0
   23.2110   10.7890   19.1730 C   0  0  0  0  0  0  0  0  0  0  0  0
   24.2350   10.8650   18.2430 C   0  0  0  0  0  0  0  0  0  0  0  0
   25.5500   10.8410   18.6560 C   0  0  0  0  0  0  0  0  0  0  0  0
   25.8710   10.7460   20.0070 C   0  0  0  0  0  0  0  0  0  0  0  0
   24.8260   10.6610   20.9430 C   0  0  0  0  0  0  0  0  0  0  0  0
   29.8540   10.9130   21.4510 C   0  0  0  0  0  0  0  0  0  0  0  0
   27.8830    9.7800   21.2080 C   0  0  0  0  0  0  0  0  0  0  0  0
   27.3000   10.8010   20.4650 C   0  0  0  0  0  0  0  0  0  0  0  0
   28.0930   11.9190   20.2200 C   0  0  0  0  0  0  0  0  0  0  0  0
   29.3850   11.9780   20.7130 C   0  0  0  0  0  0  0  0  0  0  0  0
    0.0000    0.0000    0.0000 H   0  0  0  0  0  0  0  0  0  0  0  0
    0.0000    0.0000    0.0000 H   0  0  0  0  0  0  0  0  0  0  0  0
    0.0000    0.0000    0.0000 H   0  0  0  0  0  0  0  0  0  0  0  0
    0.0000    0.0000    0.0000 H   0  0  0  0  0  0  0  0  0  0  0  0
    0.0000    0.0000    0.0000 H   0  0  0  0  0  0  0  0  0  0  0  0
    0.0000    0.0000    0.0000 H   0  0  0  0  0  0  0  0  0  0  0  0
    0.0000    0.0000    0.0000 H   0  0  0  0  0  0  0  0  0  0  0  0
    0.0000    0.0000    0.0000 H   0  0  0  0  0  0  0  0  0  0  0  0
    0.0000    0.0000    0.0000 H   0  0  0  0  0  0  0  0  0  0  0  0
    0.0000    0.0000    0.0000 H   0  0  0  0  0  0  0  0  0  0  0  0
    0.0000    0.0000    0.0000 H   0  0  0  0  0  0  0  0  0  0  0  0
    0.0000    0.0000    0.0000 H   0  0  0  0  0  0  0  0  0  0  0  0
    0.0000    0.0000    0.0000 H   0  0  0  0  0  0  0  0  0  0  0  0
   10.8367    5.1751   10.4593 C   0  0  0  0  0  0  0  0  0  0  0  0
   10.5075    5.7504    9.2995 C   0  0  0  0  0  0  0  0  0  0  0  0
    9.5855    5.1551    8.5877 N   0  0  0  0  0  0  0  0  0  0  0  0
    9.0329    4.0453    9.0268 C   0  0  0  0  0  0  0  0  0  0  0  0
    9.8502    3.8086   10.5364 S   0  0  0  0  0  0  0  0  0  0  0  0
   10.9867    6.6828    8.9532 H   0  0  0  0  0  0  0  0  0  0  0  0
    8.2620    3.4541    8.5393 H   0  0  0  0  0  0  0  0  0  0  0  0
  1  3  2  0
  1  4  1  0
  2  4  1  0
  1  5  1  0
  2  6  1  0
  5  6  1  0
  6  7  2  3
  5  8  1  0
  4 10  1  6
 10 11  2  0
 11 12  1  0
 12 13  2  0
 13 14  1  0
 10 15  1  0
 14 15  2  0
  9 16  2  0
  9 17  1  0
 14 18  1  0
 17 18  2  0
 18 19  1  0
 16 20  1  0
 19 20  2  0
  2 21  1  0
  7 22  1  0
  8 23  1  0
  8 24  1  0
  8 25  1  0
 11 26  1  0
 12 27  1  0
 13 28  1  0
 15 29  1  0
 16 30  1  0
 17 31  1  0
 19 32  1  0
 20 33  1  0
 34 35  2  0
 35 36  1  0
 36 37  2  0
 37 38  1  0
 38 34  1  0
 35 39  1  0
 37 40  1  0
  4 34  1  0
M  END
>  <attachment_point>  (415) 
21

>  <score>  (415) 
<NA>

$$$$
4djw
     RDKit          3D

 51 55  0  0  0  0  0  0  0  0999 V2000
   22.4950   11.8750   22.5810 C   0  0  0  0  0  0  0  0  0  0  0  0
   22.5380    9.4930   22.4640 N   0  0  0  0  0  0  0  0  0  0  0  0
   22.3600   13.0630   22.3480 O   0  0  0  0  0  0  0  0  0  0  0  0
   22.3390   10.6680   21.5610 C   0  0  2  0  0  0  0  0  0  0  0  0
   22.7860   11.3350   23.8120 N   0  0  0  0  0  0  0  0  0  0  0  0
   22.7800    9.9140   23.7010 C   0  0  0  0  0  0  0  0  0  0  0  0
   22.9970    9.1110   24.7490 N   0  0  0  0  0  0  0  0  0  0  0  0
   23.0220   12.1410   25.0180 C   0  0  0  0  0  0  0  0  0  0  0  0
   29.1260    9.8230   21.7090 N   0  0  0  0  0  0  0  0  0  0  0  0
   23.4880   10.6920   20.5300 C   0  0  0  0  0  0  0  0  0  0  0  0
   23.2110   10.7890   19.1730 C   0  0  0  0  0  0  0  0  0  0  0  0
   24.2350   10.8650   18.2430 C   0  0  0  0  0  0  0  0  0  0  0  0
   25.5500   10.8410   18.6560 C   0  0  0  0  0  0  0  0  0  0  0  0
   25.8710   10.7460   20.0070 C   0  0  0  0  0  0  0  0  0  0  0  0
   24.8260   10.6610   20.9430 C   0  0  0  0  0  0  0  0  0  0  0  0
   29.8540   10.9130   21.4510 C   0  0  0  0  0  0  0  0  0  0  0  0
   27.8830    9.7800   21.2080 C   0  0  0  0  0  0  0  0  0  0  0  0
   27.3000   10.8010   20.4650 C   0  0  0  0  0  0  0  0  0  0  0  0
   28.0930   11.9190   20.2200 C   0  0  0  0  0  0  0  0  0  0  0  0
   29.3850   11.9780   20.7130 C   0  0  0  0  0  0  0  0  0  0  0  0
    0.0000    0.0000    0.0000 H   0  0  0  0  0  0  0  0  0  0  0  0
    0.0000    0.0000    0.0000 H   0  0  0  0  0  0  0  0  0  0  0  0
    0.0000    0.0000    0.0000 H   0  0  0  0  0  0  0  0  0  0  0  0
    0.0000    0.0000    0.0000 H   0  0  0  0  0  0  0  0  0  0  0  0
    0.0000    0.0000    0.0000 H   0  0  0  0  0  0  0  0  0  0  0  0
    0.0000    0.0000    0.0000 H   0  0  0  0  0  0  0  0  0  0  0  0
    0.0000    0.0000    0.0000 H   0  0  0  0  0  0  0  0  0  0  0  0
    0.0000    0.0000    0.0000 H   0  0  0  0  0  0  0  0  0  0  0  0
    0.0000    0.0000    0.0000 H   0  0  0  0  0  0  0  0  0  0  0  0
    0.0000    0.0000    0.0000 H   0  0  0  0  0  0  0  0  0  0  0  0
    0.0000    0.0000    0.0000 H   0  0  0  0  0  0  0  0  0  0  0  0
    0.0000    0.0000    0.0000 H   0  0  0  0  0  0  0  0  0  0  0  0
    0.0000    0.0000    0.0000 H   0  0  0  0  0  0  0  0  0  0  0  0
   10.8861    5.1987   10.5070 C   0  0  2  0  0  0  0  0  0  0  0  0
   10.5447    3.7565   10.4348 C   0  0  0  0  0  0  0  0  0  0  0  0
   11.3518    4.3025    9.3391 C   0  0  2  0  0  0  0  0  0  0  0  0
   12.8253    4.1431    9.2876 C   0  0  0  0  0  0  0  0  0  0  0  0
   13.5638    4.1877    8.1341 C   0  0  0  0  0  0  0  0  0  0  0  0
   14.9368    4.0283    8.1840 C   0  0  0  0  0  0  0  0  0  0  0  0
   15.5595    3.8265    9.3805 C   0  0  0  0  0  0  0  0  0  0  0  0
   14.8381    3.7773   10.5587 C   0  0  0  0  0  0  0  0  0  0  0  0
   13.4859    3.9373   10.4812 C   0  0  0  0  0  0  0  0  0  0  0  0
   10.1085    5.9462   10.2684 H   0  0  0  0  0  0  0  0  0  0  0  0
   10.9978    3.0125   11.1276 H   0  0  0  0  0  0  0  0  0  0  0  0
    9.4893    3.4794   10.1748 H   0  0  0  0  0  0  0  0  0  0  0  0
   10.8632    4.4663    8.3527 H   0  0  0  0  0  0  0  0  0  0  0  0
   13.0340    4.3489    7.2121 H   0  0  0  0  0  0  0  0  0  0  0  0
   15.5371    4.0605    7.2847 H   0  0  0  0  0  0  0  0  0  0  0  0
   16.6476    3.6986    9.4343 H   0  0  0  0  0  0  0  0  0  0  0  0
   15.3017    3.6179   11.5316 H   0  0  0  0  0  0  0  0  0  0  0  0
   12.9195    3.8966   11.4248 H   0  0  0  0  0  0  0  0  0  0  0  0
  1  3  2  0
  1  4  1  0
  2  4  1  0
  1  5  1  0
  2  6  1  0
  5  6  1  0
  6  7  2  3
  5  8  1  0
  4 10  1  6
 10 11  2  0
 11 12  1  0
 12 13  2  0
 13 14  1  0
 10 15  1  0
 14 15  2  0
  9 16  2  0
  9 17  1  0
 14 18  1  0
 17 18  2  0
 18 19  1  0
 16 20  1  0
 19 20  2  0
  2 21  1  0
  7 22  1  0
  8 23  1  0
  8 24  1  0
  8 25  1  0
 11 26  1  0
 12 27  1  0
 13 28  1  0
 15 29  1  0
 16 30  1  0
 17 31  1  0
 19 32  1  0
 20 33  1  0
 34 35  1  0
 35 36  1  0
 36 37  1  0
 37 38  2  0
 38 39  1  0
 39 40  2  0
 40 41  1  0
 41 42  2  0
 36 34  1  0
 42 37  1  0
 34 43  1  1
 35 44  1  0
 35 45  1  0
 36 46  1  6
 38 47  1  0
 39 48  1  0
 40 49  1  0
 41 50  1  0
 42 51  1  0
  4 34  1  0
M  END
>  <attachment_point>  (416) 
21

>  <score>  (416) 
<NA>

$$$$
4djw
     RDKit          3D

 53 56  0  0  0  0  0  0  0  0999 V2000
   22.4950   11.8750   22.5810 C   0  0  0  0  0  0  0  0  0  0  0  0
   22.5380    9.4930   22.4640 N   0  0  0  0  0  0  0  0  0  0  0  0
   22.3600   13.0630   22.3480 O   0  0  0  0  0  0  0  0  0  0  0  0
   22.3390   10.6680   21.5610 C   0  0  2  0  0  0  0  0  0  0  0  0
   22.7860   11.3350   23.8120 N   0  0  0  0  0  0  0  0  0  0  0  0
   22.7800    9.9140   23.7010 C   0  0  0  0  0  0  0  0  0  0  0  0
   22.9970    9.1110   24.7490 N   0  0  0  0  0  0  0  0  0  0  0  0
   23.0220   12.1410   25.0180 C   0  0  0  0  0  0  0  0  0  0  0  0
   29.1260    9.8230   21.7090 N   0  0  0  0  0  0  0  0  0  0  0  0
   23.4880   10.6920   20.5300 C   0  0  0  0  0  0  0  0  0  0  0  0
   23.2110   10.7890   19.1730 C   0  0  0  0  0  0  0  0  0  0  0  0
   24.2350   10.8650   18.2430 C   0  0  0  0  0  0  0  0  0  0  0  0
   25.5500   10.8410   18.6560 C   0  0  0  0  0  0  0  0  0  0  0  0
   25.8710   10.7460   20.0070 C   0  0  0  0  0  0  0  0  0  0  0  0
   24.8260   10.6610   20.9430 C   0  0  0  0  0  0  0  0  0  0  0  0
   29.8540   10.9130   21.4510 C   0  0  0  0  0  0  0  0  0  0  0  0
   27.8830    9.7800   21.2080 C   0  0  0  0  0  0  0  0  0  0  0  0
   27.3000   10.8010   20.4650 C   0  0  0  0  0  0  0  0  0  0  0  0
   28.0930   11.9190   20.2200 C   0  0  0  0  0  0  0  0  0  0  0  0
   29.3850   11.9780   20.7130 C   0  0  0  0  0  0  0  0  0  0  0  0
    0.0000    0.0000    0.0000 H   0  0  0  0  0  0  0  0  0  0  0  0
    0.0000    0.0000    0.0000 H   0  0  0  0  0  0  0  0  0  0  0  0
    0.0000    0.0000    0.0000 H   0  0  0  0  0  0  0  0  0  0  0  0
    0.0000    0.0000    0.0000 H   0  0  0  0  0  0  0  0  0  0  0  0
    0.0000    0.0000    0.0000 H   0  0  0  0  0  0  0  0  0  0  0  0
    0.0000    0.0000    0.0000 H   0  0  0  0  0  0  0  0  0  0  0  0
    0.0000    0.0000    0.0000 H   0  0  0  0  0  0  0  0  0  0  0  0
    0.0000    0.0000    0.0000 H   0  0  0  0  0  0  0  0  0  0  0  0
    0.0000    0.0000    0.0000 H   0  0  0  0  0  0  0  0  0  0  0  0
    0.0000    0.0000    0.0000 H   0  0  0  0  0  0  0  0  0  0  0  0
    0.0000    0.0000    0.0000 H   0  0  0  0  0  0  0  0  0  0  0  0
    0.0000    0.0000    0.0000 H   0  0  0  0  0  0  0  0  0  0  0  0
    0.0000    0.0000    0.0000 H   0  0  0  0  0  0  0  0  0  0  0  0
   10.8771    5.1944   10.4983 C   0  0  0  0  0  0  0  0  0  0  0  0
   10.4708    3.8759   10.4245 C   0  0  0  0  0  0  0  0  0  0  0  0
    9.5214    3.5106    9.4832 C   0  0  0  0  0  0  0  0  0  0  0  0
    8.9649    4.4234    8.6123 C   0  0  0  0  0  0  0  0  0  0  0  0
    7.9346    4.0021    7.5979 C   0  0  0  0  0  0  0  0  0  0  0  0
    8.5284    3.0021    6.6251 C   0  0  0  0  0  0  0  0  0  0  0  0
    6.7166    3.4302    8.2716 C   0  0  0  0  0  0  0  0  0  0  0  0
    9.3952    5.7287    8.7164 C   0  0  0  0  0  0  0  0  0  0  0  0
   10.3375    6.1363    9.6379 C   0  0  0  0  0  0  0  0  0  0  0  0
   10.9156    3.1786   11.1113 H   0  0  0  0  0  0  0  0  0  0  0  0
    9.2238    2.4645    9.4517 H   0  0  0  0  0  0  0  0  0  0  0  0
    7.6157    4.8780    6.9990 H   0  0  0  0  0  0  0  0  0  0  0  0
    8.5047    1.9666    7.0343 H   0  0  0  0  0  0  0  0  0  0  0  0
    9.5912    3.2931    6.4012 H   0  0  0  0  0  0  0  0  0  0  0  0
    7.9202    3.0613    5.6984 H   0  0  0  0  0  0  0  0  0  0  0  0
    5.8934    3.4100    7.5268 H   0  0  0  0  0  0  0  0  0  0  0  0
    6.3956    4.1572    9.0611 H   0  0  0  0  0  0  0  0  0  0  0  0
    6.8844    2.4219    8.6729 H   0  0  0  0  0  0  0  0  0  0  0  0
    8.9609    6.4522    8.0337 H   0  0  0  0  0  0  0  0  0  0  0  0
   10.6685    7.1755    9.7079 H   0  0  0  0  0  0  0  0  0  0  0  0
  1  3  2  0
  1  4  1  0
  2  4  1  0
  1  5  1  0
  2  6  1  0
  5  6  1  0
  6  7  2  3
  5  8  1  0
  4 10  1  6
 10 11  2  0
 11 12  1  0
 12 13  2  0
 13 14  1  0
 10 15  1  0
 14 15  2  0
  9 16  2  0
  9 17  1  0
 14 18  1  0
 17 18  2  0
 18 19  1  0
 16 20  1  0
 19 20  2  0
  2 21  1  0
  7 22  1  0
  8 23  1  0
  8 24  1  0
  8 25  1  0
 11 26  1  0
 12 27  1  0
 13 28  1  0
 15 29  1  0
 16 30  1  0
 17 31  1  0
 19 32  1  0
 20 33  1  0
 34 35  2  0
 35 36  1  0
 36 37  2  0
 37 38  1  0
 38 39  1  0
 38 40  1  0
 37 41  1  0
 41 42  2  0
 42 34  1  0
 35 43  1  0
 36 44  1  0
 38 45  1  0
 39 46  1  0
 39 47  1  0
 39 48  1  0
 40 49  1  0
 40 50  1  0
 40 51  1  0
 41 52  1  0
 42 53  1  0
  4 34  1  0
M  END
>  <attachment_point>  (417) 
21

>  <score>  (417) 
<NA>

$$$$
4djw
     RDKit          3D

 44 47  0  0  0  0  0  0  0  0999 V2000
   22.4950   11.8750   22.5810 C   0  0  0  0  0  0  0  0  0  0  0  0
   22.5380    9.4930   22.4640 N   0  0  0  0  0  0  0  0  0  0  0  0
   22.3600   13.0630   22.3480 O   0  0  0  0  0  0  0  0  0  0  0  0
   22.3390   10.6680   21.5610 C   0  0  2  0  0  0  0  0  0  0  0  0
   22.7860   11.3350   23.8120 N   0  0  0  0  0  0  0  0  0  0  0  0
   22.7800    9.9140   23.7010 C   0  0  0  0  0  0  0  0  0  0  0  0
   22.9970    9.1110   24.7490 N   0  0  0  0  0  0  0  0  0  0  0  0
   23.0220   12.1410   25.0180 C   0  0  0  0  0  0  0  0  0  0  0  0
   29.1260    9.8230   21.7090 N   0  0  0  0  0  0  0  0  0  0  0  0
   23.4880   10.6920   20.5300 C   0  0  0  0  0  0  0  0  0  0  0  0
   23.2110   10.7890   19.1730 C   0  0  0  0  0  0  0  0  0  0  0  0
   24.2350   10.8650   18.2430 C   0  0  0  0  0  0  0  0  0  0  0  0
   25.5500   10.8410   18.6560 C   0  0  0  0  0  0  0  0  0  0  0  0
   25.8710   10.7460   20.0070 C   0  0  0  0  0  0  0  0  0  0  0  0
   24.8260   10.6610   20.9430 C   0  0  0  0  0  0  0  0  0  0  0  0
   29.8540   10.9130   21.4510 C   0  0  0  0  0  0  0  0  0  0  0  0
   27.8830    9.7800   21.2080 C   0  0  0  0  0  0  0  0  0  0  0  0
   27.3000   10.8010   20.4650 C   0  0  0  0  0  0  0  0  0  0  0  0
   28.0930   11.9190   20.2200 C   0  0  0  0  0  0  0  0  0  0  0  0
   29.3850   11.9780   20.7130 C   0  0  0  0  0  0  0  0  0  0  0  0
    0.0000    0.0000    0.0000 H   0  0  0  0  0  0  0  0  0  0  0  0
    0.0000    0.0000    0.0000 H   0  0  0  0  0  0  0  0  0  0  0  0
    0.0000    0.0000    0.0000 H   0  0  0  0  0  0  0  0  0  0  0  0
    0.0000    0.0000    0.0000 H   0  0  0  0  0  0  0  0  0  0  0  0
    0.0000    0.0000    0.0000 H   0  0  0  0  0  0  0  0  0  0  0  0
    0.0000    0.0000    0.0000 H   0  0  0  0  0  0  0  0  0  0  0  0
    0.0000    0.0000    0.0000 H   0  0  0  0  0  0  0  0  0  0  0  0
    0.0000    0.0000    0.0000 H   0  0  0  0  0  0  0  0  0  0  0  0
    0.0000    0.0000    0.0000 H   0  0  0  0  0  0  0  0  0  0  0  0
    0.0000    0.0000    0.0000 H   0  0  0  0  0  0  0  0  0  0  0  0
    0.0000    0.0000    0.0000 H   0  0  0  0  0  0  0  0  0  0  0  0
    0.0000    0.0000    0.0000 H   0  0  0  0  0  0  0  0  0  0  0  0
    0.0000    0.0000    0.0000 H   0  0  0  0  0  0  0  0  0  0  0  0
   10.8491    5.1810   10.4713 C   0  0  0  0  0  0  0  0  0  0  0  0
   10.0480    4.1345   10.7945 C   0  0  0  0  0  0  0  0  0  0  0  0
   10.1709    3.5291   12.0098 F   0  0  0  0  0  0  0  0  0  0  0  0
    9.1115    3.7015    9.8668 C   0  0  0  0  0  0  0  0  0  0  0  0
    8.9735    4.3009    8.6350 C   0  0  0  0  0  0  0  0  0  0  0  0
    9.8013    5.3589    8.3394 C   0  0  0  0  0  0  0  0  0  0  0  0
   10.7487    5.8057    9.2632 C   0  0  0  0  0  0  0  0  0  0  0  0
   11.5594    6.8517    8.9577 F   0  0  0  0  0  0  0  0  0  0  0  0
    8.4840    2.8813   10.1208 H   0  0  0  0  0  0  0  0  0  0  0  0
    8.2503    3.9775    7.9002 H   0  0  0  0  0  0  0  0  0  0  0  0
    9.7205    5.8443    7.3958 H   0  0  0  0  0  0  0  0  0  0  0  0
  1  3  2  0
  1  4  1  0
  2  4  1  0
  1  5  1  0
  2  6  1  0
  5  6  1  0
  6  7  2  3
  5  8  1  0
  4 10  1  6
 10 11  2  0
 11 12  1  0
 12 13  2  0
 13 14  1  0
 10 15  1  0
 14 15  2  0
  9 16  2  0
  9 17  1  0
 14 18  1  0
 17 18  2  0
 18 19  1  0
 16 20  1  0
 19 20  2  0
  2 21  1  0
  7 22  1  0
  8 23  1  0
  8 24  1  0
  8 25  1  0
 11 26  1  0
 12 27  1  0
 13 28  1  0
 15 29  1  0
 16 30  1  0
 17 31  1  0
 19 32  1  0
 20 33  1  0
 34 35  2  0
 35 36  1  0
 35 37  1  0
 37 38  2  0
 38 39  1  0
 39 40  2  0
 40 41  1  0
 40 34  1  0
 37 42  1  0
 38 43  1  0
 39 44  1  0
  4 34  1  0
M  END
>  <attachment_point>  (418) 
21

>  <score>  (418) 
<NA>

$$$$
4djw
     RDKit          3D

 48 51  0  0  0  0  0  0  0  0999 V2000
   22.4950   11.8750   22.5810 C   0  0  0  0  0  0  0  0  0  0  0  0
   22.5380    9.4930   22.4640 N   0  0  0  0  0  0  0  0  0  0  0  0
   22.3600   13.0630   22.3480 O   0  0  0  0  0  0  0  0  0  0  0  0
   22.3390   10.6680   21.5610 C   0  0  2  0  0  0  0  0  0  0  0  0
   22.7860   11.3350   23.8120 N   0  0  0  0  0  0  0  0  0  0  0  0
   22.7800    9.9140   23.7010 C   0  0  0  0  0  0  0  0  0  0  0  0
   22.9970    9.1110   24.7490 N   0  0  0  0  0  0  0  0  0  0  0  0
   23.0220   12.1410   25.0180 C   0  0  0  0  0  0  0  0  0  0  0  0
   29.1260    9.8230   21.7090 N   0  0  0  0  0  0  0  0  0  0  0  0
   23.4880   10.6920   20.5300 C   0  0  0  0  0  0  0  0  0  0  0  0
   23.2110   10.7890   19.1730 C   0  0  0  0  0  0  0  0  0  0  0  0
   24.2350   10.8650   18.2430 C   0  0  0  0  0  0  0  0  0  0  0  0
   25.5500   10.8410   18.6560 C   0  0  0  0  0  0  0  0  0  0  0  0
   25.8710   10.7460   20.0070 C   0  0  0  0  0  0  0  0  0  0  0  0
   24.8260   10.6610   20.9430 C   0  0  0  0  0  0  0  0  0  0  0  0
   29.8540   10.9130   21.4510 C   0  0  0  0  0  0  0  0  0  0  0  0
   27.8830    9.7800   21.2080 C   0  0  0  0  0  0  0  0  0  0  0  0
   27.3000   10.8010   20.4650 C   0  0  0  0  0  0  0  0  0  0  0  0
   28.0930   11.9190   20.2200 C   0  0  0  0  0  0  0  0  0  0  0  0
   29.3850   11.9780   20.7130 C   0  0  0  0  0  0  0  0  0  0  0  0
    0.0000    0.0000    0.0000 H   0  0  0  0  0  0  0  0  0  0  0  0
    0.0000    0.0000    0.0000 H   0  0  0  0  0  0  0  0  0  0  0  0
    0.0000    0.0000    0.0000 H   0  0  0  0  0  0  0  0  0  0  0  0
    0.0000    0.0000    0.0000 H   0  0  0  0  0  0  0  0  0  0  0  0
    0.0000    0.0000    0.0000 H   0  0  0  0  0  0  0  0  0  0  0  0
    0.0000    0.0000    0.0000 H   0  0  0  0  0  0  0  0  0  0  0  0
    0.0000    0.0000    0.0000 H   0  0  0  0  0  0  0  0  0  0  0  0
    0.0000    0.0000    0.0000 H   0  0  0  0  0  0  0  0  0  0  0  0
    0.0000    0.0000    0.0000 H   0  0  0  0  0  0  0  0  0  0  0  0
    0.0000    0.0000    0.0000 H   0  0  0  0  0  0  0  0  0  0  0  0
    0.0000    0.0000    0.0000 H   0  0  0  0  0  0  0  0  0  0  0  0
    0.0000    0.0000    0.0000 H   0  0  0  0  0  0  0  0  0  0  0  0
    0.0000    0.0000    0.0000 H   0  0  0  0  0  0  0  0  0  0  0  0
   10.8810    5.1962   10.5020 C   0  0  0  0  0  0  0  0  0  0  0  0
   11.6597    4.7119    9.2889 C   0  0  2  0  0  0  0  0  0  0  0  0
   12.5921    3.6144    9.6432 C   0  0  0  0  0  0  0  0  0  0  0  0
   13.8788    4.0147    8.9583 C   0  0  0  0  0  0  0  0  0  0  0  0
   13.6542    5.4504    8.5897 C   0  0  0  0  0  0  0  0  0  0  0  0
   12.3437    5.7613    8.7713 O   0  0  0  0  0  0  0  0  0  0  0  0
   10.2115    6.0330   10.2511 H   0  0  0  0  0  0  0  0  0  0  0  0
   10.2587    4.3666   10.8691 H   0  0  0  0  0  0  0  0  0  0  0  0
   10.9401    4.3143    8.5166 H   0  0  0  0  0  0  0  0  0  0  0  0
   12.7110    3.4726   10.7356 H   0  0  0  0  0  0  0  0  0  0  0  0
   12.2656    2.6218    9.2296 H   0  0  0  0  0  0  0  0  0  0  0  0
   13.9923    3.4348    8.0159 H   0  0  0  0  0  0  0  0  0  0  0  0
   14.7630    3.8572    9.5878 H   0  0  0  0  0  0  0  0  0  0  0  0
   14.3311    6.1536    9.1536 H   0  0  0  0  0  0  0  0  0  0  0  0
   13.9020    5.6481    7.5055 H   0  0  0  0  0  0  0  0  0  0  0  0
  1  3  2  0
  1  4  1  0
  2  4  1  0
  1  5  1  0
  2  6  1  0
  5  6  1  0
  6  7  2  3
  5  8  1  0
  4 10  1  0
 10 11  2  0
 11 12  1  0
 12 13  2  0
 13 14  1  0
 10 15  1  0
 14 15  2  0
  9 16  2  0
  9 17  1  0
 14 18  1  0
 17 18  2  0
 18 19  1  0
 16 20  1  0
 19 20  2  0
  2 21  1  0
  7 22  1  0
  8 23  1  0
  8 24  1  0
  8 25  1  0
 11 26  1  0
 12 27  1  0
 13 28  1  0
 15 29  1  0
 16 30  1  0
 17 31  1  0
 19 32  1  0
 20 33  1  0
 34 35  1  0
 35 36  1  0
 36 37  1  0
 37 38  1  0
 38 39  1  0
 39 35  1  0
 34 40  1  0
 34 41  1  0
 35 42  1  6
 36 43  1  0
 36 44  1  0
 37 45  1  0
 37 46  1  0
 38 47  1  0
 38 48  1  0
  4 34  1  6
M  END
>  <attachment_point>  (419) 
21

>  <score>  (419) 
<NA>

$$$$
4djw
     RDKit          3D

 48 50  0  0  0  0  0  0  0  0999 V2000
   22.4950   11.8750   22.5810 C   0  0  0  0  0  0  0  0  0  0  0  0
   22.5380    9.4930   22.4640 N   0  0  0  0  0  0  0  0  0  0  0  0
   22.3600   13.0630   22.3480 O   0  0  0  0  0  0  0  0  0  0  0  0
   22.3390   10.6680   21.5610 C   0  0  2  0  0  0  0  0  0  0  0  0
   22.7860   11.3350   23.8120 N   0  0  0  0  0  0  0  0  0  0  0  0
   22.7800    9.9140   23.7010 C   0  0  0  0  0  0  0  0  0  0  0  0
   22.9970    9.1110   24.7490 N   0  0  0  0  0  0  0  0  0  0  0  0
   23.0220   12.1410   25.0180 C   0  0  0  0  0  0  0  0  0  0  0  0
   29.1260    9.8230   21.7090 N   0  0  0  0  0  0  0  0  0  0  0  0
   23.4880   10.6920   20.5300 C   0  0  0  0  0  0  0  0  0  0  0  0
   23.2110   10.7890   19.1730 C   0  0  0  0  0  0  0  0  0  0  0  0
   24.2350   10.8650   18.2430 C   0  0  0  0  0  0  0  0  0  0  0  0
   25.5500   10.8410   18.6560 C   0  0  0  0  0  0  0  0  0  0  0  0
   25.8710   10.7460   20.0070 C   0  0  0  0  0  0  0  0  0  0  0  0
   24.8260   10.6610   20.9430 C   0  0  0  0  0  0  0  0  0  0  0  0
   29.8540   10.9130   21.4510 C   0  0  0  0  0  0  0  0  0  0  0  0
   27.8830    9.7800   21.2080 C   0  0  0  0  0  0  0  0  0  0  0  0
   27.3000   10.8010   20.4650 C   0  0  0  0  0  0  0  0  0  0  0  0
   28.0930   11.9190   20.2200 C   0  0  0  0  0  0  0  0  0  0  0  0
   29.3850   11.9780   20.7130 C   0  0  0  0  0  0  0  0  0  0  0  0
    0.0000    0.0000    0.0000 H   0  0  0  0  0  0  0  0  0  0  0  0
    0.0000    0.0000    0.0000 H   0  0  0  0  0  0  0  0  0  0  0  0
    0.0000    0.0000    0.0000 H   0  0  0  0  0  0  0  0  0  0  0  0
    0.0000    0.0000    0.0000 H   0  0  0  0  0  0  0  0  0  0  0  0
    0.0000    0.0000    0.0000 H   0  0  0  0  0  0  0  0  0  0  0  0
    0.0000    0.0000    0.0000 H   0  0  0  0  0  0  0  0  0  0  0  0
    0.0000    0.0000    0.0000 H   0  0  0  0  0  0  0  0  0  0  0  0
    0.0000    0.0000    0.0000 H   0  0  0  0  0  0  0  0  0  0  0  0
    0.0000    0.0000    0.0000 H   0  0  0  0  0  0  0  0  0  0  0  0
    0.0000    0.0000    0.0000 H   0  0  0  0  0  0  0  0  0  0  0  0
    0.0000    0.0000    0.0000 H   0  0  0  0  0  0  0  0  0  0  0  0
    0.0000    0.0000    0.0000 H   0  0  0  0  0  0  0  0  0  0  0  0
    0.0000    0.0000    0.0000 H   0  0  0  0  0  0  0  0  0  0  0  0
   10.8891    5.2001   10.5098 C   0  0  0  0  0  0  0  0  0  0  0  0
    9.8307    4.5523   11.2500 N   0  0  0  0  0  0  0  0  0  0  0  0
    8.8317    4.0728   10.3167 C   0  0  0  0  0  0  0  0  0  0  0  0
    8.3045    5.2683    9.5665 C   0  0  0  0  0  0  0  0  0  0  0  0
    7.7647    3.3425   11.0820 C   0  0  0  0  0  0  0  0  0  0  0  0
   11.2818    4.4724    9.7817 H   0  0  0  0  0  0  0  0  0  0  0  0
   10.4181    6.0913   10.0131 H   0  0  0  0  0  0  0  0  0  0  0  0
   10.1728    3.8061   11.8785 H   0  0  0  0  0  0  0  0  0  0  0  0
    9.2553    3.3633    9.5659 H   0  0  0  0  0  0  0  0  0  0  0  0
    8.3414    6.2075   10.1765 H   0  0  0  0  0  0  0  0  0  0  0  0
    8.9981    5.4398    8.7013 H   0  0  0  0  0  0  0  0  0  0  0  0
    7.2588    5.1300    9.2292 H   0  0  0  0  0  0  0  0  0  0  0  0
    8.0140    3.3050   12.1771 H   0  0  0  0  0  0  0  0  0  0  0  0
    7.6622    2.2816   10.7526 H   0  0  0  0  0  0  0  0  0  0  0  0
    6.7714    3.7943   11.0127 H   0  0  0  0  0  0  0  0  0  0  0  0
  1  3  2  0
  1  4  1  0
  2  4  1  0
  1  5  1  0
  2  6  1  0
  5  6  1  0
  6  7  2  3
  5  8  1  0
  4 10  1  0
 10 11  2  0
 11 12  1  0
 12 13  2  0
 13 14  1  0
 10 15  1  0
 14 15  2  0
  9 16  2  0
  9 17  1  0
 14 18  1  0
 17 18  2  0
 18 19  1  0
 16 20  1  0
 19 20  2  0
  2 21  1  0
  7 22  1  0
  8 23  1  0
  8 24  1  0
  8 25  1  0
 11 26  1  0
 12 27  1  0
 13 28  1  0
 15 29  1  0
 16 30  1  0
 17 31  1  0
 19 32  1  0
 20 33  1  0
 34 35  1  0
 35 36  1  0
 36 37  1  0
 36 38  1  0
 34 39  1  0
 34 40  1  0
 35 41  1  0
 36 42  1  0
 37 43  1  0
 37 44  1  0
 37 45  1  0
 38 46  1  0
 38 47  1  0
 38 48  1  0
  4 34  1  6
M  END
>  <attachment_point>  (420) 
21

>  <score>  (420) 
<NA>

$$$$
4djw
     RDKit          3D

 45 47  0  0  0  0  0  0  0  0999 V2000
   22.4950   11.8750   22.5810 C   0  0  0  0  0  0  0  0  0  0  0  0
   22.5380    9.4930   22.4640 N   0  0  0  0  0  0  0  0  0  0  0  0
   22.3600   13.0630   22.3480 O   0  0  0  0  0  0  0  0  0  0  0  0
   22.3390   10.6680   21.5610 C   0  0  2  0  0  0  0  0  0  0  0  0
   22.7860   11.3350   23.8120 N   0  0  0  0  0  0  0  0  0  0  0  0
   22.7800    9.9140   23.7010 C   0  0  0  0  0  0  0  0  0  0  0  0
   22.9970    9.1110   24.7490 N   0  0  0  0  0  0  0  0  0  0  0  0
   23.0220   12.1410   25.0180 C   0  0  0  0  0  0  0  0  0  0  0  0
   29.1260    9.8230   21.7090 N   0  0  0  0  0  0  0  0  0  0  0  0
   23.4880   10.6920   20.5300 C   0  0  0  0  0  0  0  0  0  0  0  0
   23.2110   10.7890   19.1730 C   0  0  0  0  0  0  0  0  0  0  0  0
   24.2350   10.8650   18.2430 C   0  0  0  0  0  0  0  0  0  0  0  0
   25.5500   10.8410   18.6560 C   0  0  0  0  0  0  0  0  0  0  0  0
   25.8710   10.7460   20.0070 C   0  0  0  0  0  0  0  0  0  0  0  0
   24.8260   10.6610   20.9430 C   0  0  0  0  0  0  0  0  0  0  0  0
   29.8540   10.9130   21.4510 C   0  0  0  0  0  0  0  0  0  0  0  0
   27.8830    9.7800   21.2080 C   0  0  0  0  0  0  0  0  0  0  0  0
   27.3000   10.8010   20.4650 C   0  0  0  0  0  0  0  0  0  0  0  0
   28.0930   11.9190   20.2200 C   0  0  0  0  0  0  0  0  0  0  0  0
   29.3850   11.9780   20.7130 C   0  0  0  0  0  0  0  0  0  0  0  0
    0.0000    0.0000    0.0000 H   0  0  0  0  0  0  0  0  0  0  0  0
    0.0000    0.0000    0.0000 H   0  0  0  0  0  0  0  0  0  0  0  0
    0.0000    0.0000    0.0000 H   0  0  0  0  0  0  0  0  0  0  0  0
    0.0000    0.0000    0.0000 H   0  0  0  0  0  0  0  0  0  0  0  0
    0.0000    0.0000    0.0000 H   0  0  0  0  0  0  0  0  0  0  0  0
    0.0000    0.0000    0.0000 H   0  0  0  0  0  0  0  0  0  0  0  0
    0.0000    0.0000    0.0000 H   0  0  0  0  0  0  0  0  0  0  0  0
    0.0000    0.0000    0.0000 H   0  0  0  0  0  0  0  0  0  0  0  0
    0.0000    0.0000    0.0000 H   0  0  0  0  0  0  0  0  0  0  0  0
    0.0000    0.0000    0.0000 H   0  0  0  0  0  0  0  0  0  0  0  0
    0.0000    0.0000    0.0000 H   0  0  0  0  0  0  0  0  0  0  0  0
    0.0000    0.0000    0.0000 H   0  0  0  0  0  0  0  0  0  0  0  0
    0.0000    0.0000    0.0000 H   0  0  0  0  0  0  0  0  0  0  0  0
   10.8713    5.1916   10.4927 C   0  0  0  0  0  0  0  0  0  0  0  0
   11.5925    4.4141    9.3977 C   0  0  2  0  0  0  0  0  0  0  0  0
   12.2694    3.3115   10.0261 N   0  0  0  0  0  0  0  0  0  0  0  0
   12.5723    5.2800    8.6947 C   0  0  0  0  0  0  0  0  0  0  0  0
   12.1956    6.3087    8.0733 O   0  0  0  0  0  0  0  0  0  0  0  0
   13.9202    4.9530    8.7219 O   0  0  0  0  0  0  0  0  0  0  0  0
   10.2735    6.0186   10.0932 H   0  0  0  0  0  0  0  0  0  0  0  0
   10.2629    4.4330   11.0448 H   0  0  0  0  0  0  0  0  0  0  0  0
   10.8766    4.0419    8.6555 H   0  0  0  0  0  0  0  0  0  0  0  0
   12.3974    2.4920    9.4126 H   0  0  0  0  0  0  0  0  0  0  0  0
   13.0885    3.5776   10.5836 H   0  0  0  0  0  0  0  0  0  0  0  0
   14.4815    5.2211    7.9009 H   0  0  0  0  0  0  0  0  0  0  0  0
  1  3  2  0
  1  4  1  0
  2  4  1  0
  1  5  1  0
  2  6  1  0
  5  6  1  0
  6  7  2  3
  5  8  1  0
  4 10  1  0
 10 11  2  0
 11 12  1  0
 12 13  2  0
 13 14  1  0
 10 15  1  0
 14 15  2  0
  9 16  2  0
  9 17  1  0
 14 18  1  0
 17 18  2  0
 18 19  1  0
 16 20  1  0
 19 20  2  0
  2 21  1  0
  7 22  1  0
  8 23  1  0
  8 24  1  0
  8 25  1  0
 11 26  1  0
 12 27  1  0
 13 28  1  0
 15 29  1  0
 16 30  1  0
 17 31  1  0
 19 32  1  0
 20 33  1  0
 34 35  1  0
 35 36  1  0
 35 37  1  0
 37 38  2  0
 37 39  1  0
 34 40  1  0
 34 41  1  0
 35 42  1  6
 36 43  1  0
 36 44  1  0
 39 45  1  0
  4 34  1  6
M  END
>  <attachment_point>  (421) 
21

>  <score>  (421) 
<NA>

$$$$
4djw
     RDKit          3D

 46 49  0  0  0  0  0  0  0  0999 V2000
   22.4950   11.8750   22.5810 C   0  0  0  0  0  0  0  0  0  0  0  0
   22.5380    9.4930   22.4640 N   0  0  0  0  0  0  0  0  0  0  0  0
   22.3600   13.0630   22.3480 O   0  0  0  0  0  0  0  0  0  0  0  0
   22.3390   10.6680   21.5610 C   0  0  2  0  0  0  0  0  0  0  0  0
   22.7860   11.3350   23.8120 N   0  0  0  0  0  0  0  0  0  0  0  0
   22.7800    9.9140   23.7010 C   0  0  0  0  0  0  0  0  0  0  0  0
   22.9970    9.1110   24.7490 N   0  0  0  0  0  0  0  0  0  0  0  0
   23.0220   12.1410   25.0180 C   0  0  0  0  0  0  0  0  0  0  0  0
   29.1260    9.8230   21.7090 N   0  0  0  0  0  0  0  0  0  0  0  0
   23.4880   10.6920   20.5300 C   0  0  0  0  0  0  0  0  0  0  0  0
   23.2110   10.7890   19.1730 C   0  0  0  0  0  0  0  0  0  0  0  0
   24.2350   10.8650   18.2430 C   0  0  0  0  0  0  0  0  0  0  0  0
   25.5500   10.8410   18.6560 C   0  0  0  0  0  0  0  0  0  0  0  0
   25.8710   10.7460   20.0070 C   0  0  0  0  0  0  0  0  0  0  0  0
   24.8260   10.6610   20.9430 C   0  0  0  0  0  0  0  0  0  0  0  0
   29.8540   10.9130   21.4510 C   0  0  0  0  0  0  0  0  0  0  0  0
   27.8830    9.7800   21.2080 C   0  0  0  0  0  0  0  0  0  0  0  0
   27.3000   10.8010   20.4650 C   0  0  0  0  0  0  0  0  0  0  0  0
   28.0930   11.9190   20.2200 C   0  0  0  0  0  0  0  0  0  0  0  0
   29.3850   11.9780   20.7130 C   0  0  0  0  0  0  0  0  0  0  0  0
    0.0000    0.0000    0.0000 H   0  0  0  0  0  0  0  0  0  0  0  0
    0.0000    0.0000    0.0000 H   0  0  0  0  0  0  0  0  0  0  0  0
    0.0000    0.0000    0.0000 H   0  0  0  0  0  0  0  0  0  0  0  0
    0.0000    0.0000    0.0000 H   0  0  0  0  0  0  0  0  0  0  0  0
    0.0000    0.0000    0.0000 H   0  0  0  0  0  0  0  0  0  0  0  0
    0.0000    0.0000    0.0000 H   0  0  0  0  0  0  0  0  0  0  0  0
    0.0000    0.0000    0.0000 H   0  0  0  0  0  0  0  0  0  0  0  0
    0.0000    0.0000    0.0000 H   0  0  0  0  0  0  0  0  0  0  0  0
    0.0000    0.0000    0.0000 H   0  0  0  0  0  0  0  0  0  0  0  0
    0.0000    0.0000    0.0000 H   0  0  0  0  0  0  0  0  0  0  0  0
    0.0000    0.0000    0.0000 H   0  0  0  0  0  0  0  0  0  0  0  0
    0.0000    0.0000    0.0000 H   0  0  0  0  0  0  0  0  0  0  0  0
    0.0000    0.0000    0.0000 H   0  0  0  0  0  0  0  0  0  0  0  0
   10.8738    5.1928   10.4951 C   0  0  0  0  0  0  0  0  0  0  0  0
   10.3403    6.0247    9.5351 C   0  0  0  0  0  0  0  0  0  0  0  0
    9.4053    5.5064    8.6619 C   0  0  0  0  0  0  0  0  0  0  0  0
    8.9833    4.1943    8.7096 C   0  0  0  0  0  0  0  0  0  0  0  0
    7.9662    3.6571    7.7489 C   0  0  0  0  0  0  0  0  0  0  0  0
    6.6915    3.7659    8.2185 F   0  0  0  0  0  0  0  0  0  0  0  0
    8.0906    4.2701    6.5016 F   0  0  0  0  0  0  0  0  0  0  0  0
    8.2083    2.2992    7.5054 F   0  0  0  0  0  0  0  0  0  0  0  0
    9.5225    3.4066    9.6582 N   0  0  0  0  0  0  0  0  0  0  0  0
   10.4356    3.8886   10.5206 C   0  0  0  0  0  0  0  0  0  0  0  0
   10.6741    7.0477    9.5035 H   0  0  0  0  0  0  0  0  0  0  0  0
    8.9742    6.1394    7.9022 H   0  0  0  0  0  0  0  0  0  0  0  0
   10.8726    3.2449   11.2916 H   0  0  0  0  0  0  0  0  0  0  0  0
  1  3  2  0
  1  4  1  0
  2  4  1  0
  1  5  1  0
  2  6  1  0
  5  6  1  0
  6  7  2  3
  5  8  1  0
  4 10  1  6
 10 11  2  0
 11 12  1  0
 12 13  2  0
 13 14  1  0
 10 15  1  0
 14 15  2  0
  9 16  2  0
  9 17  1  0
 14 18  1  0
 17 18  2  0
 18 19  1  0
 16 20  1  0
 19 20  2  0
  2 21  1  0
  7 22  1  0
  8 23  1  0
  8 24  1  0
  8 25  1  0
 11 26  1  0
 12 27  1  0
 13 28  1  0
 15 29  1  0
 16 30  1  0
 17 31  1  0
 19 32  1  0
 20 33  1  0
 34 35  2  0
 35 36  1  0
 36 37  2  0
 37 38  1  0
 38 39  1  0
 38 40  1  0
 38 41  1  0
 37 42  1  0
 42 43  2  0
 43 34  1  0
 35 44  1  0
 36 45  1  0
 43 46  1  0
  4 34  1  0
M  END
>  <attachment_point>  (422) 
21

>  <score>  (422) 
<NA>

$$$$
4djw
     RDKit          3D

 47 50  0  0  0  0  0  0  0  0999 V2000
   22.4950   11.8750   22.5810 C   0  0  0  0  0  0  0  0  0  0  0  0
   22.5380    9.4930   22.4640 N   0  0  0  0  0  0  0  0  0  0  0  0
   22.3600   13.0630   22.3480 O   0  0  0  0  0  0  0  0  0  0  0  0
   22.3390   10.6680   21.5610 C   0  0  2  0  0  0  0  0  0  0  0  0
   22.7860   11.3350   23.8120 N   0  0  0  0  0  0  0  0  0  0  0  0
   22.7800    9.9140   23.7010 C   0  0  0  0  0  0  0  0  0  0  0  0
   22.9970    9.1110   24.7490 N   0  0  0  0  0  0  0  0  0  0  0  0
   23.0220   12.1410   25.0180 C   0  0  0  0  0  0  0  0  0  0  0  0
   29.1260    9.8230   21.7090 N   0  0  0  0  0  0  0  0  0  0  0  0
   23.4880   10.6920   20.5300 C   0  0  0  0  0  0  0  0  0  0  0  0
   23.2110   10.7890   19.1730 C   0  0  0  0  0  0  0  0  0  0  0  0
   24.2350   10.8650   18.2430 C   0  0  0  0  0  0  0  0  0  0  0  0
   25.5500   10.8410   18.6560 C   0  0  0  0  0  0  0  0  0  0  0  0
   25.8710   10.7460   20.0070 C   0  0  0  0  0  0  0  0  0  0  0  0
   24.8260   10.6610   20.9430 C   0  0  0  0  0  0  0  0  0  0  0  0
   29.8540   10.9130   21.4510 C   0  0  0  0  0  0  0  0  0  0  0  0
   27.8830    9.7800   21.2080 C   0  0  0  0  0  0  0  0  0  0  0  0
   27.3000   10.8010   20.4650 C   0  0  0  0  0  0  0  0  0  0  0  0
   28.0930   11.9190   20.2200 C   0  0  0  0  0  0  0  0  0  0  0  0
   29.3850   11.9780   20.7130 C   0  0  0  0  0  0  0  0  0  0  0  0
    0.0000    0.0000    0.0000 H   0  0  0  0  0  0  0  0  0  0  0  0
    0.0000    0.0000    0.0000 H   0  0  0  0  0  0  0  0  0  0  0  0
    0.0000    0.0000    0.0000 H   0  0  0  0  0  0  0  0  0  0  0  0
    0.0000    0.0000    0.0000 H   0  0  0  0  0  0  0  0  0  0  0  0
    0.0000    0.0000    0.0000 H   0  0  0  0  0  0  0  0  0  0  0  0
    0.0000    0.0000    0.0000 H   0  0  0  0  0  0  0  0  0  0  0  0
    0.0000    0.0000    0.0000 H   0  0  0  0  0  0  0  0  0  0  0  0
    0.0000    0.0000    0.0000 H   0  0  0  0  0  0  0  0  0  0  0  0
    0.0000    0.0000    0.0000 H   0  0  0  0  0  0  0  0  0  0  0  0
    0.0000    0.0000    0.0000 H   0  0  0  0  0  0  0  0  0  0  0  0
    0.0000    0.0000    0.0000 H   0  0  0  0  0  0  0  0  0  0  0  0
    0.0000    0.0000    0.0000 H   0  0  0  0  0  0  0  0  0  0  0  0
    0.0000    0.0000    0.0000 H   0  0  0  0  0  0  0  0  0  0  0  0
   10.8748    5.1933   10.4961 C   0  0  0  0  0  0  0  0  0  0  0  0
    9.9308    6.0033   10.0146 C   0  0  0  0  0  0  0  0  0  0  0  0
    8.9659    5.4261    9.0437 C   0  0  0  0  0  0  0  0  0  0  0  0
    9.6435    4.6538    8.0552 N   0  0  0  0  0  0  0  0  0  0  0  0
   10.6157    3.7438    8.5355 C   0  0  0  0  0  0  0  0  0  0  0  0
   10.8682    3.7946   10.0142 C   0  0  0  0  0  0  0  0  0  0  0  0
    9.8570    7.0439   10.3100 H   0  0  0  0  0  0  0  0  0  0  0  0
    8.2401    4.7855    9.6086 H   0  0  0  0  0  0  0  0  0  0  0  0
    8.3762    6.2253    8.5608 H   0  0  0  0  0  0  0  0  0  0  0  0
   10.0203    5.2601    7.2896 H   0  0  0  0  0  0  0  0  0  0  0  0
   10.3238    2.6988    8.2821 H   0  0  0  0  0  0  0  0  0  0  0  0
   11.5928    3.9484    8.0164 H   0  0  0  0  0  0  0  0  0  0  0  0
   11.8905    3.3955   10.1847 H   0  0  0  0  0  0  0  0  0  0  0  0
   10.1742    3.1464   10.5881 H   0  0  0  0  0  0  0  0  0  0  0  0
  1  3  2  0
  1  4  1  0
  2  4  1  0
  1  5  1  0
  2  6  1  0
  5  6  1  0
  6  7  2  3
  5  8  1  0
  4 10  1  6
 10 11  2  0
 11 12  1  0
 12 13  2  0
 13 14  1  0
 10 15  1  0
 14 15  2  0
  9 16  2  0
  9 17  1  0
 14 18  1  0
 17 18  2  0
 18 19  1  0
 16 20  1  0
 19 20  2  0
  2 21  1  0
  7 22  1  0
  8 23  1  0
  8 24  1  0
  8 25  1  0
 11 26  1  0
 12 27  1  0
 13 28  1  0
 15 29  1  0
 16 30  1  0
 17 31  1  0
 19 32  1  0
 20 33  1  0
 34 35  2  0
 35 36  1  0
 36 37  1  0
 37 38  1  0
 38 39  1  0
 39 34  1  0
 35 40  1  0
 36 41  1  0
 36 42  1  0
 37 43  1  0
 38 44  1  0
 38 45  1  0
 39 46  1  0
 39 47  1  0
  4 34  1  0
M  END
>  <attachment_point>  (423) 
21

>  <score>  (423) 
<NA>

$$$$
4djw
     RDKit          3D

 46 49  0  0  0  0  0  0  0  0999 V2000
   22.4950   11.8750   22.5810 C   0  0  0  0  0  0  0  0  0  0  0  0
   22.5380    9.4930   22.4640 N   0  0  0  0  0  0  0  0  0  0  0  0
   22.3600   13.0630   22.3480 O   0  0  0  0  0  0  0  0  0  0  0  0
   22.3390   10.6680   21.5610 C   0  0  2  0  0  0  0  0  0  0  0  0
   22.7860   11.3350   23.8120 N   0  0  0  0  0  0  0  0  0  0  0  0
   22.7800    9.9140   23.7010 C   0  0  0  0  0  0  0  0  0  0  0  0
   22.9970    9.1110   24.7490 N   0  0  0  0  0  0  0  0  0  0  0  0
   23.0220   12.1410   25.0180 C   0  0  0  0  0  0  0  0  0  0  0  0
   29.1260    9.8230   21.7090 N   0  0  0  0  0  0  0  0  0  0  0  0
   23.4880   10.6920   20.5300 C   0  0  0  0  0  0  0  0  0  0  0  0
   23.2110   10.7890   19.1730 C   0  0  0  0  0  0  0  0  0  0  0  0
   24.2350   10.8650   18.2430 C   0  0  0  0  0  0  0  0  0  0  0  0
   25.5500   10.8410   18.6560 C   0  0  0  0  0  0  0  0  0  0  0  0
   25.8710   10.7460   20.0070 C   0  0  0  0  0  0  0  0  0  0  0  0
   24.8260   10.6610   20.9430 C   0  0  0  0  0  0  0  0  0  0  0  0
   29.8540   10.9130   21.4510 C   0  0  0  0  0  0  0  0  0  0  0  0
   27.8830    9.7800   21.2080 C   0  0  0  0  0  0  0  0  0  0  0  0
   27.3000   10.8010   20.4650 C   0  0  0  0  0  0  0  0  0  0  0  0
   28.0930   11.9190   20.2200 C   0  0  0  0  0  0  0  0  0  0  0  0
   29.3850   11.9780   20.7130 C   0  0  0  0  0  0  0  0  0  0  0  0
    0.0000    0.0000    0.0000 H   0  0  0  0  0  0  0  0  0  0  0  0
    0.0000    0.0000    0.0000 H   0  0  0  0  0  0  0  0  0  0  0  0
    0.0000    0.0000    0.0000 H   0  0  0  0  0  0  0  0  0  0  0  0
    0.0000    0.0000    0.0000 H   0  0  0  0  0  0  0  0  0  0  0  0
    0.0000    0.0000    0.0000 H   0  0  0  0  0  0  0  0  0  0  0  0
    0.0000    0.0000    0.0000 H   0  0  0  0  0  0  0  0  0  0  0  0
    0.0000    0.0000    0.0000 H   0  0  0  0  0  0  0  0  0  0  0  0
    0.0000    0.0000    0.0000 H   0  0  0  0  0  0  0  0  0  0  0  0
    0.0000    0.0000    0.0000 H   0  0  0  0  0  0  0  0  0  0  0  0
    0.0000    0.0000    0.0000 H   0  0  0  0  0  0  0  0  0  0  0  0
    0.0000    0.0000    0.0000 H   0  0  0  0  0  0  0  0  0  0  0  0
    0.0000    0.0000    0.0000 H   0  0  0  0  0  0  0  0  0  0  0  0
    0.0000    0.0000    0.0000 H   0  0  0  0  0  0  0  0  0  0  0  0
   10.7948    5.1551   10.4188 O   0  0  0  0  0  0  0  0  0  0  0  0
   10.6074    6.3177    9.6826 C   0  0  0  0  0  0  0  0  0  0  0  0
    9.5979    7.2011   10.0015 C   0  0  0  0  0  0  0  0  0  0  0  0
    9.3850    8.3511    9.3011 C   0  0  0  0  0  0  0  0  0  0  0  0
   10.2126    8.6481    8.2264 C   0  0  0  0  0  0  0  0  0  0  0  0
   10.0490    9.8045    7.4710 O   0  0  0  0  0  0  0  0  0  0  0  0
   11.2217    7.7630    7.9093 C   0  0  0  0  0  0  0  0  0  0  0  0
   11.4416    6.5905    8.6205 C   0  0  0  0  0  0  0  0  0  0  0  0
    8.9636    6.9606   10.8356 H   0  0  0  0  0  0  0  0  0  0  0  0
    8.5803    9.0295    9.5759 H   0  0  0  0  0  0  0  0  0  0  0  0
   10.6424   10.5944    7.7437 H   0  0  0  0  0  0  0  0  0  0  0  0
   11.8682    7.9962    7.0688 H   0  0  0  0  0  0  0  0  0  0  0  0
   12.2365    5.9273    8.3434 H   0  0  0  0  0  0  0  0  0  0  0  0
  1  3  2  0
  1  4  1  0
  2  4  1  0
  1  5  1  0
  2  6  1  0
  5  6  1  0
  6  7  2  3
  5  8  1  0
  4 10  1  0
 10 11  2  0
 11 12  1  0
 12 13  2  0
 13 14  1  0
 10 15  1  0
 14 15  2  0
  9 16  2  0
  9 17  1  0
 14 18  1  0
 17 18  2  0
 18 19  1  0
 16 20  1  0
 19 20  2  0
  2 21  1  0
  7 22  1  0
  8 23  1  0
  8 24  1  0
  8 25  1  0
 11 26  1  0
 12 27  1  0
 13 28  1  0
 15 29  1  0
 16 30  1  0
 17 31  1  0
 19 32  1  0
 20 33  1  0
 34 35  1  0
 35 36  2  0
 36 37  1  0
 37 38  2  0
 38 39  1  0
 38 40  1  0
 40 41  2  0
 41 35  1  0
 36 42  1  0
 37 43  1  0
 39 44  1  0
 40 45  1  0
 41 46  1  0
  4 34  1  6
M  END
>  <attachment_point>  (424) 
21

>  <score>  (424) 
<NA>

$$$$
4djw
     RDKit          3D

 46 49  0  0  0  0  0  0  0  0999 V2000
   22.4950   11.8750   22.5810 C   0  0  0  0  0  0  0  0  0  0  0  0
   22.5380    9.4930   22.4640 N   0  0  0  0  0  0  0  0  0  0  0  0
   22.3600   13.0630   22.3480 O   0  0  0  0  0  0  0  0  0  0  0  0
   22.3390   10.6680   21.5610 C   0  0  2  0  0  0  0  0  0  0  0  0
   22.7860   11.3350   23.8120 N   0  0  0  0  0  0  0  0  0  0  0  0
   22.7800    9.9140   23.7010 C   0  0  0  0  0  0  0  0  0  0  0  0
   22.9970    9.1110   24.7490 N   0  0  0  0  0  0  0  0  0  0  0  0
   23.0220   12.1410   25.0180 C   0  0  0  0  0  0  0  0  0  0  0  0
   29.1260    9.8230   21.7090 N   0  0  0  0  0  0  0  0  0  0  0  0
   23.4880   10.6920   20.5300 C   0  0  0  0  0  0  0  0  0  0  0  0
   23.2110   10.7890   19.1730 C   0  0  0  0  0  0  0  0  0  0  0  0
   24.2350   10.8650   18.2430 C   0  0  0  0  0  0  0  0  0  0  0  0
   25.5500   10.8410   18.6560 C   0  0  0  0  0  0  0  0  0  0  0  0
   25.8710   10.7460   20.0070 C   0  0  0  0  0  0  0  0  0  0  0  0
   24.8260   10.6610   20.9430 C   0  0  0  0  0  0  0  0  0  0  0  0
   29.8540   10.9130   21.4510 C   0  0  0  0  0  0  0  0  0  0  0  0
   27.8830    9.7800   21.2080 C   0  0  0  0  0  0  0  0  0  0  0  0
   27.3000   10.8010   20.4650 C   0  0  0  0  0  0  0  0  0  0  0  0
   28.0930   11.9190   20.2200 C   0  0  0  0  0  0  0  0  0  0  0  0
   29.3850   11.9780   20.7130 C   0  0  0  0  0  0  0  0  0  0  0  0
    0.0000    0.0000    0.0000 H   0  0  0  0  0  0  0  0  0  0  0  0
    0.0000    0.0000    0.0000 H   0  0  0  0  0  0  0  0  0  0  0  0
    0.0000    0.0000    0.0000 H   0  0  0  0  0  0  0  0  0  0  0  0
    0.0000    0.0000    0.0000 H   0  0  0  0  0  0  0  0  0  0  0  0
    0.0000    0.0000    0.0000 H   0  0  0  0  0  0  0  0  0  0  0  0
    0.0000    0.0000    0.0000 H   0  0  0  0  0  0  0  0  0  0  0  0
    0.0000    0.0000    0.0000 H   0  0  0  0  0  0  0  0  0  0  0  0
    0.0000    0.0000    0.0000 H   0  0  0  0  0  0  0  0  0  0  0  0
    0.0000    0.0000    0.0000 H   0  0  0  0  0  0  0  0  0  0  0  0
    0.0000    0.0000    0.0000 H   0  0  0  0  0  0  0  0  0  0  0  0
    0.0000    0.0000    0.0000 H   0  0  0  0  0  0  0  0  0  0  0  0
    0.0000    0.0000    0.0000 H   0  0  0  0  0  0  0  0  0  0  0  0
    0.0000    0.0000    0.0000 H   0  0  0  0  0  0  0  0  0  0  0  0
   10.8704    5.1912   10.4918 N   0  0  0  0  0  0  0  0  0  0  0  0
    9.5105    5.1996   10.8394 C   0  0  0  0  0  0  0  0  0  0  0  0
    9.0157    5.6304   12.0449 C   0  0  0  0  0  0  0  0  0  0  0  0
    7.6356    5.5926   12.2809 C   0  0  0  0  0  0  0  0  0  0  0  0
    6.7498    5.1331   11.3342 C   0  0  0  0  0  0  0  0  0  0  0  0
    5.4062    5.0993   11.5713 F   0  0  0  0  0  0  0  0  0  0  0  0
    7.2447    4.7025   10.1289 C   0  0  0  0  0  0  0  0  0  0  0  0
    8.6035    4.7449    9.9099 C   0  0  0  0  0  0  0  0  0  0  0  0
   11.2914    4.8819    9.6102 H   0  0  0  0  0  0  0  0  0  0  0  0
    9.7116    5.9882   12.7808 H   0  0  0  0  0  0  0  0  0  0  0  0
    7.2630    5.9410   13.2492 H   0  0  0  0  0  0  0  0  0  0  0  0
    6.5612    4.3265    9.3444 H   0  0  0  0  0  0  0  0  0  0  0  0
    8.9741    4.3912    8.9284 H   0  0  0  0  0  0  0  0  0  0  0  0
  1  3  2  0
  1  4  1  0
  2  4  1  0
  1  5  1  0
  2  6  1  0
  5  6  1  0
  6  7  2  3
  5  8  1  0
  4 10  1  0
 10 11  2  0
 11 12  1  0
 12 13  2  0
 13 14  1  0
 10 15  1  0
 14 15  2  0
  9 16  2  0
  9 17  1  0
 14 18  1  0
 17 18  2  0
 18 19  1  0
 16 20  1  0
 19 20  2  0
  2 21  1  0
  7 22  1  0
  8 23  1  0
  8 24  1  0
  8 25  1  0
 11 26  1  0
 12 27  1  0
 13 28  1  0
 15 29  1  0
 16 30  1  0
 17 31  1  0
 19 32  1  0
 20 33  1  0
 34 35  1  0
 35 36  2  0
 36 37  1  0
 37 38  2  0
 38 39  1  0
 38 40  1  0
 40 41  2  0
 41 35  1  0
 34 42  1  0
 36 43  1  0
 37 44  1  0
 40 45  1  0
 41 46  1  0
  4 34  1  6
M  END
>  <attachment_point>  (425) 
21

>  <score>  (425) 
<NA>

$$$$
4djw
     RDKit          3D

 48 51  0  0  0  0  0  0  0  0999 V2000
   22.4950   11.8750   22.5810 C   0  0  0  0  0  0  0  0  0  0  0  0
   22.5380    9.4930   22.4640 N   0  0  0  0  0  0  0  0  0  0  0  0
   22.3600   13.0630   22.3480 O   0  0  0  0  0  0  0  0  0  0  0  0
   22.3390   10.6680   21.5610 C   0  0  2  0  0  0  0  0  0  0  0  0
   22.7860   11.3350   23.8120 N   0  0  0  0  0  0  0  0  0  0  0  0
   22.7800    9.9140   23.7010 C   0  0  0  0  0  0  0  0  0  0  0  0
   22.9970    9.1110   24.7490 N   0  0  0  0  0  0  0  0  0  0  0  0
   23.0220   12.1410   25.0180 C   0  0  0  0  0  0  0  0  0  0  0  0
   29.1260    9.8230   21.7090 N   0  0  0  0  0  0  0  0  0  0  0  0
   23.4880   10.6920   20.5300 C   0  0  0  0  0  0  0  0  0  0  0  0
   23.2110   10.7890   19.1730 C   0  0  0  0  0  0  0  0  0  0  0  0
   24.2350   10.8650   18.2430 C   0  0  0  0  0  0  0  0  0  0  0  0
   25.5500   10.8410   18.6560 C   0  0  0  0  0  0  0  0  0  0  0  0
   25.8710   10.7460   20.0070 C   0  0  0  0  0  0  0  0  0  0  0  0
   24.8260   10.6610   20.9430 C   0  0  0  0  0  0  0  0  0  0  0  0
   29.8540   10.9130   21.4510 C   0  0  0  0  0  0  0  0  0  0  0  0
   27.8830    9.7800   21.2080 C   0  0  0  0  0  0  0  0  0  0  0  0
   27.3000   10.8010   20.4650 C   0  0  0  0  0  0  0  0  0  0  0  0
   28.0930   11.9190   20.2200 C   0  0  0  0  0  0  0  0  0  0  0  0
   29.3850   11.9780   20.7130 C   0  0  0  0  0  0  0  0  0  0  0  0
    0.0000    0.0000    0.0000 H   0  0  0  0  0  0  0  0  0  0  0  0
    0.0000    0.0000    0.0000 H   0  0  0  0  0  0  0  0  0  0  0  0
    0.0000    0.0000    0.0000 H   0  0  0  0  0  0  0  0  0  0  0  0
    0.0000    0.0000    0.0000 H   0  0  0  0  0  0  0  0  0  0  0  0
    0.0000    0.0000    0.0000 H   0  0  0  0  0  0  0  0  0  0  0  0
    0.0000    0.0000    0.0000 H   0  0  0  0  0  0  0  0  0  0  0  0
    0.0000    0.0000    0.0000 H   0  0  0  0  0  0  0  0  0  0  0  0
    0.0000    0.0000    0.0000 H   0  0  0  0  0  0  0  0  0  0  0  0
    0.0000    0.0000    0.0000 H   0  0  0  0  0  0  0  0  0  0  0  0
    0.0000    0.0000    0.0000 H   0  0  0  0  0  0  0  0  0  0  0  0
    0.0000    0.0000    0.0000 H   0  0  0  0  0  0  0  0  0  0  0  0
    0.0000    0.0000    0.0000 H   0  0  0  0  0  0  0  0  0  0  0  0
    0.0000    0.0000    0.0000 H   0  0  0  0  0  0  0  0  0  0  0  0
   10.8337    5.1736   10.4564 C   0  0  0  0  0  0  0  0  0  0  0  0
   10.3496    6.0362    9.5614 C   0  0  0  0  0  0  0  0  0  0  0  0
    9.3887    5.5451    8.6466 C   0  0  0  0  0  0  0  0  0  0  0  0
    8.9779    4.2470    8.6811 C   0  0  0  0  0  0  0  0  0  0  0  0
    8.0304    3.8280    7.7536 O   0  0  0  0  0  0  0  0  0  0  0  0
    7.4870    4.7060    6.7840 C   0  0  0  0  0  0  0  0  0  0  0  0
    9.4969    3.3827    9.6172 C   0  0  0  0  0  0  0  0  0  0  0  0
    9.1106    2.0949    9.6757 F   0  0  0  0  0  0  0  0  0  0  0  0
   10.4551    3.8722   10.5294 C   0  0  0  0  0  0  0  0  0  0  0  0
   10.6676    7.0716    9.5228 H   0  0  0  0  0  0  0  0  0  0  0  0
    8.9963    6.2298    7.9271 H   0  0  0  0  0  0  0  0  0  0  0  0
    6.8913    4.1622    6.0308 H   0  0  0  0  0  0  0  0  0  0  0  0
    6.8733    5.4669    7.3050 H   0  0  0  0  0  0  0  0  0  0  0  0
    8.3516    5.2043    6.2875 H   0  0  0  0  0  0  0  0  0  0  0  0
   10.8917    3.2375   11.2806 H   0  0  0  0  0  0  0  0  0  0  0  0
  1  3  2  0
  1  4  1  0
  2  4  1  0
  1  5  1  0
  2  6  1  0
  5  6  1  0
  6  7  2  3
  5  8  1  0
  4 10  1  6
 10 11  2  0
 11 12  1  0
 12 13  2  0
 13 14  1  0
 10 15  1  0
 14 15  2  0
  9 16  2  0
  9 17  1  0
 14 18  1  0
 17 18  2  0
 18 19  1  0
 16 20  1  0
 19 20  2  0
  2 21  1  0
  7 22  1  0
  8 23  1  0
  8 24  1  0
  8 25  1  0
 11 26  1  0
 12 27  1  0
 13 28  1  0
 15 29  1  0
 16 30  1  0
 17 31  1  0
 19 32  1  0
 20 33  1  0
 34 35  2  0
 35 36  1  0
 36 37  2  0
 37 38  1  0
 38 39  1  0
 37 40  1  0
 40 41  1  0
 40 42  2  0
 42 34  1  0
 35 43  1  0
 36 44  1  0
 39 45  1  0
 39 46  1  0
 39 47  1  0
 42 48  1  0
  4 34  1  0
M  END
>  <attachment_point>  (426) 
21

>  <score>  (426) 
<NA>

$$$$
4djw
     RDKit          3D

 46 48  0  0  0  0  0  0  0  0999 V2000
   22.4950   11.8750   22.5810 C   0  0  0  0  0  0  0  0  0  0  0  0
   22.5380    9.4930   22.4640 N   0  0  0  0  0  0  0  0  0  0  0  0
   22.3600   13.0630   22.3480 O   0  0  0  0  0  0  0  0  0  0  0  0
   22.3390   10.6680   21.5610 C   0  0  2  0  0  0  0  0  0  0  0  0
   22.7860   11.3350   23.8120 N   0  0  0  0  0  0  0  0  0  0  0  0
   22.7800    9.9140   23.7010 C   0  0  0  0  0  0  0  0  0  0  0  0
   22.9970    9.1110   24.7490 N   0  0  0  0  0  0  0  0  0  0  0  0
   23.0220   12.1410   25.0180 C   0  0  0  0  0  0  0  0  0  0  0  0
   29.1260    9.8230   21.7090 N   0  0  0  0  0  0  0  0  0  0  0  0
   23.4880   10.6920   20.5300 C   0  0  0  0  0  0  0  0  0  0  0  0
   23.2110   10.7890   19.1730 C   0  0  0  0  0  0  0  0  0  0  0  0
   24.2350   10.8650   18.2430 C   0  0  0  0  0  0  0  0  0  0  0  0
   25.5500   10.8410   18.6560 C   0  0  0  0  0  0  0  0  0  0  0  0
   25.8710   10.7460   20.0070 C   0  0  0  0  0  0  0  0  0  0  0  0
   24.8260   10.6610   20.9430 C   0  0  0  0  0  0  0  0  0  0  0  0
   29.8540   10.9130   21.4510 C   0  0  0  0  0  0  0  0  0  0  0  0
   27.8830    9.7800   21.2080 C   0  0  0  0  0  0  0  0  0  0  0  0
   27.3000   10.8010   20.4650 C   0  0  0  0  0  0  0  0  0  0  0  0
   28.0930   11.9190   20.2200 C   0  0  0  0  0  0  0  0  0  0  0  0
   29.3850   11.9780   20.7130 C   0  0  0  0  0  0  0  0  0  0  0  0
    0.0000    0.0000    0.0000 H   0  0  0  0  0  0  0  0  0  0  0  0
    0.0000    0.0000    0.0000 H   0  0  0  0  0  0  0  0  0  0  0  0
    0.0000    0.0000    0.0000 H   0  0  0  0  0  0  0  0  0  0  0  0
    0.0000    0.0000    0.0000 H   0  0  0  0  0  0  0  0  0  0  0  0
    0.0000    0.0000    0.0000 H   0  0  0  0  0  0  0  0  0  0  0  0
    0.0000    0.0000    0.0000 H   0  0  0  0  0  0  0  0  0  0  0  0
    0.0000    0.0000    0.0000 H   0  0  0  0  0  0  0  0  0  0  0  0
    0.0000    0.0000    0.0000 H   0  0  0  0  0  0  0  0  0  0  0  0
    0.0000    0.0000    0.0000 H   0  0  0  0  0  0  0  0  0  0  0  0
    0.0000    0.0000    0.0000 H   0  0  0  0  0  0  0  0  0  0  0  0
    0.0000    0.0000    0.0000 H   0  0  0  0  0  0  0  0  0  0  0  0
    0.0000    0.0000    0.0000 H   0  0  0  0  0  0  0  0  0  0  0  0
    0.0000    0.0000    0.0000 H   0  0  0  0  0  0  0  0  0  0  0  0
   10.8310    5.1723   10.4538 C   0  0  0  0  0  0  0  0  0  0  0  0
    9.5131    5.6282   10.7943 C   0  0  0  0  0  0  0  0  0  0  0  0
   11.3175    4.4821    9.5523 N   0  0  0  0  0  0  0  0  0  0  0  0
   12.6272    4.1169    9.3442 N   0  0  0  0  0  0  0  0  0  0  0  0
   13.0422    3.7689    8.0259 C   0  0  0  0  0  0  0  0  0  0  0  0
   14.3819    3.3829    7.7464 N   0  0  0  0  0  0  0  0  0  0  0  0
   11.9764    3.8025    6.7732 S   0  0  0  0  0  0  0  0  0  0  0  0
    9.1170    4.9948   11.6401 H   0  0  0  0  0  0  0  0  0  0  0  0
    8.8542    5.5298    9.9181 H   0  0  0  0  0  0  0  0  0  0  0  0
    9.5509    6.6992   11.1203 H   0  0  0  0  0  0  0  0  0  0  0  0
   13.3455    4.0790   10.1071 H   0  0  0  0  0  0  0  0  0  0  0  0
   15.1034    4.1272    7.6396 H   0  0  0  0  0  0  0  0  0  0  0  0
   14.6929    2.3947    7.6400 H   0  0  0  0  0  0  0  0  0  0  0  0
  1  3  2  0
  1  4  1  0
  2  4  1  0
  1  5  1  0
  2  6  1  0
  5  6  1  0
  6  7  2  3
  5  8  1  0
  4 10  1  6
 10 11  2  0
 11 12  1  0
 12 13  2  0
 13 14  1  0
 10 15  1  0
 14 15  2  0
  9 16  2  0
  9 17  1  0
 14 18  1  0
 17 18  2  0
 18 19  1  0
 16 20  1  0
 19 20  2  0
  2 21  1  0
  7 22  1  0
  8 23  1  0
  8 24  1  0
  8 25  1  0
 11 26  1  0
 12 27  1  0
 13 28  1  0
 15 29  1  0
 16 30  1  0
 17 31  1  0
 19 32  1  0
 20 33  1  0
 34 35  1  0
 34 36  2  3
 36 37  1  0
 37 38  1  0
 38 39  1  0
 38 40  2  0
 35 41  1  0
 35 42  1  0
 35 43  1  0
 37 44  1  0
 39 45  1  0
 39 46  1  0
  4 34  1  0
M  END
>  <attachment_point>  (427) 
21

>  <score>  (427) 
<NA>

$$$$
4djw
     RDKit          3D

 43 46  0  0  0  0  0  0  0  0999 V2000
   22.4950   11.8750   22.5810 C   0  0  0  0  0  0  0  0  0  0  0  0
   22.5380    9.4930   22.4640 N   0  0  0  0  0  0  0  0  0  0  0  0
   22.3600   13.0630   22.3480 O   0  0  0  0  0  0  0  0  0  0  0  0
   22.3390   10.6680   21.5610 C   0  0  2  0  0  0  0  0  0  0  0  0
   22.7860   11.3350   23.8120 N   0  0  0  0  0  0  0  0  0  0  0  0
   22.7800    9.9140   23.7010 C   0  0  0  0  0  0  0  0  0  0  0  0
   22.9970    9.1110   24.7490 N   0  0  0  0  0  0  0  0  0  0  0  0
   23.0220   12.1410   25.0180 C   0  0  0  0  0  0  0  0  0  0  0  0
   29.1260    9.8230   21.7090 N   0  0  0  0  0  0  0  0  0  0  0  0
   23.4880   10.6920   20.5300 C   0  0  0  0  0  0  0  0  0  0  0  0
   23.2110   10.7890   19.1730 C   0  0  0  0  0  0  0  0  0  0  0  0
   24.2350   10.8650   18.2430 C   0  0  0  0  0  0  0  0  0  0  0  0
   25.5500   10.8410   18.6560 C   0  0  0  0  0  0  0  0  0  0  0  0
   25.8710   10.7460   20.0070 C   0  0  0  0  0  0  0  0  0  0  0  0
   24.8260   10.6610   20.9430 C   0  0  0  0  0  0  0  0  0  0  0  0
   29.8540   10.9130   21.4510 C   0  0  0  0  0  0  0  0  0  0  0  0
   27.8830    9.7800   21.2080 C   0  0  0  0  0  0  0  0  0  0  0  0
   27.3000   10.8010   20.4650 C   0  0  0  0  0  0  0  0  0  0  0  0
   28.0930   11.9190   20.2200 C   0  0  0  0  0  0  0  0  0  0  0  0
   29.3850   11.9780   20.7130 C   0  0  0  0  0  0  0  0  0  0  0  0
    0.0000    0.0000    0.0000 H   0  0  0  0  0  0  0  0  0  0  0  0
    0.0000    0.0000    0.0000 H   0  0  0  0  0  0  0  0  0  0  0  0
    0.0000    0.0000    0.0000 H   0  0  0  0  0  0  0  0  0  0  0  0
    0.0000    0.0000    0.0000 H   0  0  0  0  0  0  0  0  0  0  0  0
    0.0000    0.0000    0.0000 H   0  0  0  0  0  0  0  0  0  0  0  0
    0.0000    0.0000    0.0000 H   0  0  0  0  0  0  0  0  0  0  0  0
    0.0000    0.0000    0.0000 H   0  0  0  0  0  0  0  0  0  0  0  0
    0.0000    0.0000    0.0000 H   0  0  0  0  0  0  0  0  0  0  0  0
    0.0000    0.0000    0.0000 H   0  0  0  0  0  0  0  0  0  0  0  0
    0.0000    0.0000    0.0000 H   0  0  0  0  0  0  0  0  0  0  0  0
    0.0000    0.0000    0.0000 H   0  0  0  0  0  0  0  0  0  0  0  0
    0.0000    0.0000    0.0000 H   0  0  0  0  0  0  0  0  0  0  0  0
    0.0000    0.0000    0.0000 H   0  0  0  0  0  0  0  0  0  0  0  0
   10.8886    5.1999   10.5094 C   0  0  0  0  0  0  0  0  0  0  0  0
   11.2395    4.8576    9.3508 O   0  0  0  0  0  0  0  0  0  0  0  0
    9.4601    5.1005   10.8421 C   0  0  0  0  0  0  0  0  0  0  0  0
    8.9359    5.4411   12.0717 C   0  0  0  0  0  0  0  0  0  0  0  0
    7.5778    5.2106   11.9886 C   0  0  0  0  0  0  0  0  0  0  0  0
    7.3317    4.7394   10.7125 C   0  0  0  0  0  0  0  0  0  0  0  0
    8.4786    4.6934   10.0760 O   0  0  0  0  0  0  0  0  0  0  0  0
    9.4223    5.8131   12.9515 H   0  0  0  0  0  0  0  0  0  0  0  0
    6.8184    5.3601   12.7598 H   0  0  0  0  0  0  0  0  0  0  0  0
    6.3497    4.4555   10.3084 H   0  0  0  0  0  0  0  0  0  0  0  0
  1  3  2  0
  1  4  1  0
  2  4  1  0
  1  5  1  0
  2  6  1  0
  5  6  1  0
  6  7  2  3
  5  8  1  0
  4 10  1  0
 10 11  2  0
 11 12  1  0
 12 13  2  0
 13 14  1  0
 10 15  1  0
 14 15  2  0
  9 16  2  0
  9 17  1  0
 14 18  1  0
 17 18  2  0
 18 19  1  0
 16 20  1  0
 19 20  2  0
  2 21  1  0
  7 22  1  0
  8 23  1  0
  8 24  1  0
  8 25  1  0
 11 26  1  0
 12 27  1  0
 13 28  1  0
 15 29  1  0
 16 30  1  0
 17 31  1  0
 19 32  1  0
 20 33  1  0
 34 35  2  0
 34 36  1  0
 36 37  2  0
 37 38  1  0
 38 39  2  0
 39 40  1  0
 40 36  1  0
 37 41  1  0
 38 42  1  0
 39 43  1  0
  4 34  1  6
M  END
>  <attachment_point>  (428) 
21

>  <score>  (428) 
<NA>

$$$$
4djw
     RDKit          3D

 48 51  0  0  0  0  0  0  0  0999 V2000
   22.4950   11.8750   22.5810 C   0  0  0  0  0  0  0  0  0  0  0  0
   22.5380    9.4930   22.4640 N   0  0  0  0  0  0  0  0  0  0  0  0
   22.3600   13.0630   22.3480 O   0  0  0  0  0  0  0  0  0  0  0  0
   22.3390   10.6680   21.5610 C   0  0  2  0  0  0  0  0  0  0  0  0
   22.7860   11.3350   23.8120 N   0  0  0  0  0  0  0  0  0  0  0  0
   22.7800    9.9140   23.7010 C   0  0  0  0  0  0  0  0  0  0  0  0
   22.9970    9.1110   24.7490 N   0  0  0  0  0  0  0  0  0  0  0  0
   23.0220   12.1410   25.0180 C   0  0  0  0  0  0  0  0  0  0  0  0
   29.1260    9.8230   21.7090 N   0  0  0  0  0  0  0  0  0  0  0  0
   23.4880   10.6920   20.5300 C   0  0  0  0  0  0  0  0  0  0  0  0
   23.2110   10.7890   19.1730 C   0  0  0  0  0  0  0  0  0  0  0  0
   24.2350   10.8650   18.2430 C   0  0  0  0  0  0  0  0  0  0  0  0
   25.5500   10.8410   18.6560 C   0  0  0  0  0  0  0  0  0  0  0  0
   25.8710   10.7460   20.0070 C   0  0  0  0  0  0  0  0  0  0  0  0
   24.8260   10.6610   20.9430 C   0  0  0  0  0  0  0  0  0  0  0  0
   29.8540   10.9130   21.4510 C   0  0  0  0  0  0  0  0  0  0  0  0
   27.8830    9.7800   21.2080 C   0  0  0  0  0  0  0  0  0  0  0  0
   27.3000   10.8010   20.4650 C   0  0  0  0  0  0  0  0  0  0  0  0
   28.0930   11.9190   20.2200 C   0  0  0  0  0  0  0  0  0  0  0  0
   29.3850   11.9780   20.7130 C   0  0  0  0  0  0  0  0  0  0  0  0
    0.0000    0.0000    0.0000 H   0  0  0  0  0  0  0  0  0  0  0  0
    0.0000    0.0000    0.0000 H   0  0  0  0  0  0  0  0  0  0  0  0
    0.0000    0.0000    0.0000 H   0  0  0  0  0  0  0  0  0  0  0  0
    0.0000    0.0000    0.0000 H   0  0  0  0  0  0  0  0  0  0  0  0
    0.0000    0.0000    0.0000 H   0  0  0  0  0  0  0  0  0  0  0  0
    0.0000    0.0000    0.0000 H   0  0  0  0  0  0  0  0  0  0  0  0
    0.0000    0.0000    0.0000 H   0  0  0  0  0  0  0  0  0  0  0  0
    0.0000    0.0000    0.0000 H   0  0  0  0  0  0  0  0  0  0  0  0
    0.0000    0.0000    0.0000 H   0  0  0  0  0  0  0  0  0  0  0  0
    0.0000    0.0000    0.0000 H   0  0  0  0  0  0  0  0  0  0  0  0
    0.0000    0.0000    0.0000 H   0  0  0  0  0  0  0  0  0  0  0  0
    0.0000    0.0000    0.0000 H   0  0  0  0  0  0  0  0  0  0  0  0
    0.0000    0.0000    0.0000 H   0  0  0  0  0  0  0  0  0  0  0  0
   10.8882    5.1997   10.5090 C   0  0  2  0  0  0  0  0  0  0  0  0
    9.8780    6.1551   10.4489 O   0  0  0  0  0  0  0  0  0  0  0  0
   10.3783    3.8657   10.9003 C   0  0  0  0  0  0  0  0  0  0  0  0
   11.0780    3.1387   11.8504 C   0  0  0  0  0  0  0  0  0  0  0  0
   10.6342    1.8981   12.2373 C   0  0  0  0  0  0  0  0  0  0  0  0
    9.4884    1.3535   11.6903 C   0  0  0  0  0  0  0  0  0  0  0  0
    8.7808    2.0608   10.7458 C   0  0  0  0  0  0  0  0  0  0  0  0
    9.2351    3.3135   10.3597 C   0  0  0  0  0  0  0  0  0  0  0  0
   11.3775    5.1812    9.5125 H   0  0  0  0  0  0  0  0  0  0  0  0
    9.2103    5.8277    9.7981 H   0  0  0  0  0  0  0  0  0  0  0  0
   11.9797    3.5850   12.2704 H   0  0  0  0  0  0  0  0  0  0  0  0
   11.2260    1.3785   12.9854 H   0  0  0  0  0  0  0  0  0  0  0  0
    9.1740    0.3836   12.0173 H   0  0  0  0  0  0  0  0  0  0  0  0
    7.8676    1.6627   10.2890 H   0  0  0  0  0  0  0  0  0  0  0  0
    8.6644    3.8716    9.6052 H   0  0  0  0  0  0  0  0  0  0  0  0
  1  3  2  0
  1  4  1  0
  2  4  1  0
  1  5  1  0
  2  6  1  0
  5  6  1  0
  6  7  2  3
  5  8  1  0
  4 10  1  6
 10 11  2  0
 11 12  1  0
 12 13  2  0
 13 14  1  0
 10 15  1  0
 14 15  2  0
  9 16  2  0
  9 17  1  0
 14 18  1  0
 17 18  2  0
 18 19  1  0
 16 20  1  0
 19 20  2  0
  2 21  1  0
  7 22  1  0
  8 23  1  0
  8 24  1  0
  8 25  1  0
 11 26  1  0
 12 27  1  0
 13 28  1  0
 15 29  1  0
 16 30  1  0
 17 31  1  0
 19 32  1  0
 20 33  1  0
 34 35  1  0
 34 36  1  0
 36 37  2  0
 37 38  1  0
 38 39  2  0
 39 40  1  0
 40 41  2  0
 41 36  1  0
 34 42  1  1
 35 43  1  0
 37 44  1  0
 38 45  1  0
 39 46  1  0
 40 47  1  0
 41 48  1  0
  4 34  1  0
M  END
>  <attachment_point>  (429) 
21

>  <score>  (429) 
<NA>

$$$$
4djw
     RDKit          3D

 48 50  0  0  0  0  0  0  0  0999 V2000
   22.4950   11.8750   22.5810 C   0  0  0  0  0  0  0  0  0  0  0  0
   22.5380    9.4930   22.4640 N   0  0  0  0  0  0  0  0  0  0  0  0
   22.3600   13.0630   22.3480 O   0  0  0  0  0  0  0  0  0  0  0  0
   22.3390   10.6680   21.5610 C   0  0  2  0  0  0  0  0  0  0  0  0
   22.7860   11.3350   23.8120 N   0  0  0  0  0  0  0  0  0  0  0  0
   22.7800    9.9140   23.7010 C   0  0  0  0  0  0  0  0  0  0  0  0
   22.9970    9.1110   24.7490 N   0  0  0  0  0  0  0  0  0  0  0  0
   23.0220   12.1410   25.0180 C   0  0  0  0  0  0  0  0  0  0  0  0
   29.1260    9.8230   21.7090 N   0  0  0  0  0  0  0  0  0  0  0  0
   23.4880   10.6920   20.5300 C   0  0  0  0  0  0  0  0  0  0  0  0
   23.2110   10.7890   19.1730 C   0  0  0  0  0  0  0  0  0  0  0  0
   24.2350   10.8650   18.2430 C   0  0  0  0  0  0  0  0  0  0  0  0
   25.5500   10.8410   18.6560 C   0  0  0  0  0  0  0  0  0  0  0  0
   25.8710   10.7460   20.0070 C   0  0  0  0  0  0  0  0  0  0  0  0
   24.8260   10.6610   20.9430 C   0  0  0  0  0  0  0  0  0  0  0  0
   29.8540   10.9130   21.4510 C   0  0  0  0  0  0  0  0  0  0  0  0
   27.8830    9.7800   21.2080 C   0  0  0  0  0  0  0  0  0  0  0  0
   27.3000   10.8010   20.4650 C   0  0  0  0  0  0  0  0  0  0  0  0
   28.0930   11.9190   20.2200 C   0  0  0  0  0  0  0  0  0  0  0  0
   29.3850   11.9780   20.7130 C   0  0  0  0  0  0  0  0  0  0  0  0
    0.0000    0.0000    0.0000 H   0  0  0  0  0  0  0  0  0  0  0  0
    0.0000    0.0000    0.0000 H   0  0  0  0  0  0  0  0  0  0  0  0
    0.0000    0.0000    0.0000 H   0  0  0  0  0  0  0  0  0  0  0  0
    0.0000    0.0000    0.0000 H   0  0  0  0  0  0  0  0  0  0  0  0
    0.0000    0.0000    0.0000 H   0  0  0  0  0  0  0  0  0  0  0  0
    0.0000    0.0000    0.0000 H   0  0  0  0  0  0  0  0  0  0  0  0
    0.0000    0.0000    0.0000 H   0  0  0  0  0  0  0  0  0  0  0  0
    0.0000    0.0000    0.0000 H   0  0  0  0  0  0  0  0  0  0  0  0
    0.0000    0.0000    0.0000 H   0  0  0  0  0  0  0  0  0  0  0  0
    0.0000    0.0000    0.0000 H   0  0  0  0  0  0  0  0  0  0  0  0
    0.0000    0.0000    0.0000 H   0  0  0  0  0  0  0  0  0  0  0  0
    0.0000    0.0000    0.0000 H   0  0  0  0  0  0  0  0  0  0  0  0
    0.0000    0.0000    0.0000 H   0  0  0  0  0  0  0  0  0  0  0  0
   10.9241    5.2168   10.5437 N   0  0  0  0  0  0  0  0  0  0  0  0
   10.7144    6.0231    9.3600 C   0  0  0  0  0  0  0  0  0  0  0  0
   10.2561    7.4206    9.6900 C   0  0  0  0  0  0  0  0  0  0  0  0
   11.2500    8.1675   10.5401 C   0  0  0  0  0  0  0  0  0  0  0  0
   10.6685    9.5519   10.7975 C   0  0  0  0  0  0  0  0  0  0  0  0
   11.1624    4.2485   10.1919 H   0  0  0  0  0  0  0  0  0  0  0  0
   11.6753    6.0409    8.8056 H   0  0  0  0  0  0  0  0  0  0  0  0
    9.9077    5.5474    8.7674 H   0  0  0  0  0  0  0  0  0  0  0  0
   10.1697    7.9658    8.7260 H   0  0  0  0  0  0  0  0  0  0  0  0
    9.2571    7.3831   10.1518 H   0  0  0  0  0  0  0  0  0  0  0  0
   12.1807    8.3190    9.9648 H   0  0  0  0  0  0  0  0  0  0  0  0
   11.4255    7.6788   11.5136 H   0  0  0  0  0  0  0  0  0  0  0  0
   10.5073   10.0885    9.8375 H   0  0  0  0  0  0  0  0  0  0  0  0
   11.4007   10.1776   11.3671 H   0  0  0  0  0  0  0  0  0  0  0  0
    9.7133    9.4415   11.3760 H   0  0  0  0  0  0  0  0  0  0  0  0
  1  3  2  0
  1  4  1  0
  2  4  1  0
  1  5  1  0
  2  6  1  0
  5  6  1  0
  6  7  2  3
  5  8  1  0
  4 10  1  0
 10 11  2  0
 11 12  1  0
 12 13  2  0
 13 14  1  0
 10 15  1  0
 14 15  2  0
  9 16  2  0
  9 17  1  0
 14 18  1  0
 17 18  2  0
 18 19  1  0
 16 20  1  0
 19 20  2  0
  2 21  1  0
  7 22  1  0
  8 23  1  0
  8 24  1  0
  8 25  1  0
 11 26  1  0
 12 27  1  0
 13 28  1  0
 15 29  1  0
 16 30  1  0
 17 31  1  0
 19 32  1  0
 20 33  1  0
 34 35  1  0
 35 36  1  0
 36 37  1  0
 37 38  1  0
 34 39  1  0
 35 40  1  0
 35 41  1  0
 36 42  1  0
 36 43  1  0
 37 44  1  0
 37 45  1  0
 38 46  1  0
 38 47  1  0
 38 48  1  0
  4 34  1  6
M  END
>  <attachment_point>  (430) 
21

>  <score>  (430) 
<NA>

$$$$
4djw
     RDKit          3D

 37 39  0  0  0  0  0  0  0  0999 V2000
   22.4950   11.8750   22.5810 C   0  0  0  0  0  0  0  0  0  0  0  0
   22.5380    9.4930   22.4640 N   0  0  0  0  0  0  0  0  0  0  0  0
   22.3600   13.0630   22.3480 O   0  0  0  0  0  0  0  0  0  0  0  0
   22.3390   10.6680   21.5610 C   0  0  2  0  0  0  0  0  0  0  0  0
   22.7860   11.3350   23.8120 N   0  0  0  0  0  0  0  0  0  0  0  0
   22.7800    9.9140   23.7010 C   0  0  0  0  0  0  0  0  0  0  0  0
   22.9970    9.1110   24.7490 N   0  0  0  0  0  0  0  0  0  0  0  0
   23.0220   12.1410   25.0180 C   0  0  0  0  0  0  0  0  0  0  0  0
   29.1260    9.8230   21.7090 N   0  0  0  0  0  0  0  0  0  0  0  0
   23.4880   10.6920   20.5300 C   0  0  0  0  0  0  0  0  0  0  0  0
   23.2110   10.7890   19.1730 C   0  0  0  0  0  0  0  0  0  0  0  0
   24.2350   10.8650   18.2430 C   0  0  0  0  0  0  0  0  0  0  0  0
   25.5500   10.8410   18.6560 C   0  0  0  0  0  0  0  0  0  0  0  0
   25.8710   10.7460   20.0070 C   0  0  0  0  0  0  0  0  0  0  0  0
   24.8260   10.6610   20.9430 C   0  0  0  0  0  0  0  0  0  0  0  0
   29.8540   10.9130   21.4510 C   0  0  0  0  0  0  0  0  0  0  0  0
   27.8830    9.7800   21.2080 C   0  0  0  0  0  0  0  0  0  0  0  0
   27.3000   10.8010   20.4650 C   0  0  0  0  0  0  0  0  0  0  0  0
   28.0930   11.9190   20.2200 C   0  0  0  0  0  0  0  0  0  0  0  0
   29.3850   11.9780   20.7130 C   0  0  0  0  0  0  0  0  0  0  0  0
    0.0000    0.0000    0.0000 H   0  0  0  0  0  0  0  0  0  0  0  0
    0.0000    0.0000    0.0000 H   0  0  0  0  0  0  0  0  0  0  0  0
    0.0000    0.0000    0.0000 H   0  0  0  0  0  0  0  0  0  0  0  0
    0.0000    0.0000    0.0000 H   0  0  0  0  0  0  0  0  0  0  0  0
    0.0000    0.0000    0.0000 H   0  0  0  0  0  0  0  0  0  0  0  0
    0.0000    0.0000    0.0000 H   0  0  0  0  0  0  0  0  0  0  0  0
    0.0000    0.0000    0.0000 H   0  0  0  0  0  0  0  0  0  0  0  0
    0.0000    0.0000    0.0000 H   0  0  0  0  0  0  0  0  0  0  0  0
    0.0000    0.0000    0.0000 H   0  0  0  0  0  0  0  0  0  0  0  0
    0.0000    0.0000    0.0000 H   0  0  0  0  0  0  0  0  0  0  0  0
    0.0000    0.0000    0.0000 H   0  0  0  0  0  0  0  0  0  0  0  0
    0.0000    0.0000    0.0000 H   0  0  0  0  0  0  0  0  0  0  0  0
    0.0000    0.0000    0.0000 H   0  0  0  0  0  0  0  0  0  0  0  0
   10.9402    5.2245   10.5592 N   0  0  0  0  0  0  0  0  0  0  0  0
   10.8813    5.5552    9.3544 N   0  0  0  0  0  4  0  0  0  0  0  0
   10.2853    5.9420    8.3412 N   0  0  0  0  0  0  0  0  0  0  0  0
   10.3065    6.9316    8.0676 H   0  0  0  0  0  0  0  0  0  0  0  0
  1  3  2  0
  1  4  1  0
  2  4  1  0
  1  5  1  0
  2  6  1  0
  5  6  1  0
  6  7  2  3
  5  8  1  0
  4 10  1  0
 10 11  2  0
 11 12  1  0
 12 13  2  0
 13 14  1  0
 10 15  1  0
 14 15  2  0
  9 16  2  0
  9 17  1  0
 14 18  1  0
 17 18  2  0
 18 19  1  0
 16 20  1  0
 19 20  2  0
  2 21  1  0
  7 22  1  0
  8 23  1  0
  8 24  1  0
  8 25  1  0
 11 26  1  0
 12 27  1  0
 13 28  1  0
 15 29  1  0
 16 30  1  0
 17 31  1  0
 19 32  1  0
 20 33  1  0
 34 35  2  0
 35 36  2  0
 36 37  1  0
  4 34  1  6
M  CHG  1  35   1
M  END
>  <attachment_point>  (431) 
21

>  <score>  (431) 
<NA>

$$$$
4djw
     RDKit          3D

 47 50  0  0  0  0  0  0  0  0999 V2000
   22.4950   11.8750   22.5810 C   0  0  0  0  0  0  0  0  0  0  0  0
   22.5380    9.4930   22.4640 N   0  0  0  0  0  0  0  0  0  0  0  0
   22.3600   13.0630   22.3480 O   0  0  0  0  0  0  0  0  0  0  0  0
   22.3390   10.6680   21.5610 C   0  0  2  0  0  0  0  0  0  0  0  0
   22.7860   11.3350   23.8120 N   0  0  0  0  0  0  0  0  0  0  0  0
   22.7800    9.9140   23.7010 C   0  0  0  0  0  0  0  0  0  0  0  0
   22.9970    9.1110   24.7490 N   0  0  0  0  0  0  0  0  0  0  0  0
   23.0220   12.1410   25.0180 C   0  0  0  0  0  0  0  0  0  0  0  0
   29.1260    9.8230   21.7090 N   0  0  0  0  0  0  0  0  0  0  0  0
   23.4880   10.6920   20.5300 C   0  0  0  0  0  0  0  0  0  0  0  0
   23.2110   10.7890   19.1730 C   0  0  0  0  0  0  0  0  0  0  0  0
   24.2350   10.8650   18.2430 C   0  0  0  0  0  0  0  0  0  0  0  0
   25.5500   10.8410   18.6560 C   0  0  0  0  0  0  0  0  0  0  0  0
   25.8710   10.7460   20.0070 C   0  0  0  0  0  0  0  0  0  0  0  0
   24.8260   10.6610   20.9430 C   0  0  0  0  0  0  0  0  0  0  0  0
   29.8540   10.9130   21.4510 C   0  0  0  0  0  0  0  0  0  0  0  0
   27.8830    9.7800   21.2080 C   0  0  0  0  0  0  0  0  0  0  0  0
   27.3000   10.8010   20.4650 C   0  0  0  0  0  0  0  0  0  0  0  0
   28.0930   11.9190   20.2200 C   0  0  0  0  0  0  0  0  0  0  0  0
   29.3850   11.9780   20.7130 C   0  0  0  0  0  0  0  0  0  0  0  0
    0.0000    0.0000    0.0000 H   0  0  0  0  0  0  0  0  0  0  0  0
    0.0000    0.0000    0.0000 H   0  0  0  0  0  0  0  0  0  0  0  0
    0.0000    0.0000    0.0000 H   0  0  0  0  0  0  0  0  0  0  0  0
    0.0000    0.0000    0.0000 H   0  0  0  0  0  0  0  0  0  0  0  0
    0.0000    0.0000    0.0000 H   0  0  0  0  0  0  0  0  0  0  0  0
    0.0000    0.0000    0.0000 H   0  0  0  0  0  0  0  0  0  0  0  0
    0.0000    0.0000    0.0000 H   0  0  0  0  0  0  0  0  0  0  0  0
    0.0000    0.0000    0.0000 H   0  0  0  0  0  0  0  0  0  0  0  0
    0.0000    0.0000    0.0000 H   0  0  0  0  0  0  0  0  0  0  0  0
    0.0000    0.0000    0.0000 H   0  0  0  0  0  0  0  0  0  0  0  0
    0.0000    0.0000    0.0000 H   0  0  0  0  0  0  0  0  0  0  0  0
    0.0000    0.0000    0.0000 H   0  0  0  0  0  0  0  0  0  0  0  0
    0.0000    0.0000    0.0000 H   0  0  0  0  0  0  0  0  0  0  0  0
   10.8154    5.1649   10.4388 O   0  0  0  0  0  0  0  0  0  0  0  0
   11.5559    5.7382    9.3782 C   0  0  0  0  0  0  0  0  0  0  0  0
   12.9118    5.1515    9.3140 C   0  0  0  0  0  0  0  0  0  0  0  0
   13.2703    4.1924   10.2200 C   0  0  0  0  0  0  0  0  0  0  0  0
   14.5437    3.6403   10.1613 C   0  0  0  0  0  0  0  0  0  0  0  0
   15.3935    4.0786    9.1958 C   0  0  0  0  0  0  0  0  0  0  0  0
   15.0284    5.0387    8.2923 C   0  0  0  0  0  0  0  0  0  0  0  0
   13.7835    5.5510    8.3813 N   0  0  0  0  0  0  0  0  0  0  0  0
   10.9771    5.5502    8.4777 H   0  0  0  0  0  0  0  0  0  0  0  0
   11.6938    6.8345    9.5431 H   0  0  0  0  0  0  0  0  0  0  0  0
   12.6298    3.8129   11.0040 H   0  0  0  0  0  0  0  0  0  0  0  0
   14.8746    2.8772   10.8571 H   0  0  0  0  0  0  0  0  0  0  0  0
   16.4195    3.6953    9.0777 H   0  0  0  0  0  0  0  0  0  0  0  0
   15.7296    5.3826    7.5160 H   0  0  0  0  0  0  0  0  0  0  0  0
  1  3  2  0
  1  4  1  0
  2  4  1  0
  1  5  1  0
  2  6  1  0
  5  6  1  0
  6  7  2  3
  5  8  1  0
  4 10  1  0
 10 11  2  0
 11 12  1  0
 12 13  2  0
 13 14  1  0
 10 15  1  0
 14 15  2  0
  9 16  2  0
  9 17  1  0
 14 18  1  0
 17 18  2  0
 18 19  1  0
 16 20  1  0
 19 20  2  0
  2 21  1  0
  7 22  1  0
  8 23  1  0
  8 24  1  0
  8 25  1  0
 11 26  1  0
 12 27  1  0
 13 28  1  0
 15 29  1  0
 16 30  1  0
 17 31  1  0
 19 32  1  0
 20 33  1  0
 34 35  1  0
 35 36  1  0
 36 37  2  0
 37 38  1  0
 38 39  2  0
 39 40  1  0
 40 41  2  0
 41 36  1  0
 35 42  1  0
 35 43  1  0
 37 44  1  0
 38 45  1  0
 39 46  1  0
 40 47  1  0
  4 34  1  6
M  END
>  <attachment_point>  (432) 
21

>  <score>  (432) 
<NA>

$$$$
4djw
     RDKit          3D

 51 54  0  0  0  0  0  0  0  0999 V2000
   22.4950   11.8750   22.5810 C   0  0  0  0  0  0  0  0  0  0  0  0
   22.5380    9.4930   22.4640 N   0  0  0  0  0  0  0  0  0  0  0  0
   22.3600   13.0630   22.3480 O   0  0  0  0  0  0  0  0  0  0  0  0
   22.3390   10.6680   21.5610 C   0  0  2  0  0  0  0  0  0  0  0  0
   22.7860   11.3350   23.8120 N   0  0  0  0  0  0  0  0  0  0  0  0
   22.7800    9.9140   23.7010 C   0  0  0  0  0  0  0  0  0  0  0  0
   22.9970    9.1110   24.7490 N   0  0  0  0  0  0  0  0  0  0  0  0
   23.0220   12.1410   25.0180 C   0  0  0  0  0  0  0  0  0  0  0  0
   29.1260    9.8230   21.7090 N   0  0  0  0  0  0  0  0  0  0  0  0
   23.4880   10.6920   20.5300 C   0  0  0  0  0  0  0  0  0  0  0  0
   23.2110   10.7890   19.1730 C   0  0  0  0  0  0  0  0  0  0  0  0
   24.2350   10.8650   18.2430 C   0  0  0  0  0  0  0  0  0  0  0  0
   25.5500   10.8410   18.6560 C   0  0  0  0  0  0  0  0  0  0  0  0
   25.8710   10.7460   20.0070 C   0  0  0  0  0  0  0  0  0  0  0  0
   24.8260   10.6610   20.9430 C   0  0  0  0  0  0  0  0  0  0  0  0
   29.8540   10.9130   21.4510 C   0  0  0  0  0  0  0  0  0  0  0  0
   27.8830    9.7800   21.2080 C   0  0  0  0  0  0  0  0  0  0  0  0
   27.3000   10.8010   20.4650 C   0  0  0  0  0  0  0  0  0  0  0  0
   28.0930   11.9190   20.2200 C   0  0  0  0  0  0  0  0  0  0  0  0
   29.3850   11.9780   20.7130 C   0  0  0  0  0  0  0  0  0  0  0  0
    0.0000    0.0000    0.0000 H   0  0  0  0  0  0  0  0  0  0  0  0
    0.0000    0.0000    0.0000 H   0  0  0  0  0  0  0  0  0  0  0  0
    0.0000    0.0000    0.0000 H   0  0  0  0  0  0  0  0  0  0  0  0
    0.0000    0.0000    0.0000 H   0  0  0  0  0  0  0  0  0  0  0  0
    0.0000    0.0000    0.0000 H   0  0  0  0  0  0  0  0  0  0  0  0
    0.0000    0.0000    0.0000 H   0  0  0  0  0  0  0  0  0  0  0  0
    0.0000    0.0000    0.0000 H   0  0  0  0  0  0  0  0  0  0  0  0
    0.0000    0.0000    0.0000 H   0  0  0  0  0  0  0  0  0  0  0  0
    0.0000    0.0000    0.0000 H   0  0  0  0  0  0  0  0  0  0  0  0
    0.0000    0.0000    0.0000 H   0  0  0  0  0  0  0  0  0  0  0  0
    0.0000    0.0000    0.0000 H   0  0  0  0  0  0  0  0  0  0  0  0
    0.0000    0.0000    0.0000 H   0  0  0  0  0  0  0  0  0  0  0  0
    0.0000    0.0000    0.0000 H   0  0  0  0  0  0  0  0  0  0  0  0
   10.8667    5.1894   10.4882 C   0  0  0  0  0  0  0  0  0  0  0  0
   11.5767    4.4518    9.3677 C   0  0  0  0  0  0  0  0  0  0  0  0
   12.4931    5.3025    8.6988 O   0  0  0  0  0  0  0  0  0  0  0  0
   13.2719    4.9088    7.6490 C   0  0  0  0  0  0  0  0  0  0  0  0
   14.1248    5.8444    7.0886 C   0  0  0  0  0  0  0  0  0  0  0  0
   14.9443    5.5387    6.0307 C   0  0  0  0  0  0  0  0  0  0  0  0
   14.9456    4.2752    5.4847 C   0  0  0  0  0  0  0  0  0  0  0  0
   14.0966    3.3144    6.0298 C   0  0  0  0  0  0  0  0  0  0  0  0
   13.2780    3.6430    7.0966 C   0  0  0  0  0  0  0  0  0  0  0  0
   10.4279    6.1410   10.1066 H   0  0  0  0  0  0  0  0  0  0  0  0
   10.1269    4.5392   10.9510 H   0  0  0  0  0  0  0  0  0  0  0  0
   10.7914    4.0615    8.6946 H   0  0  0  0  0  0  0  0  0  0  0  0
   12.0902    3.5698    9.8097 H   0  0  0  0  0  0  0  0  0  0  0  0
   14.1559    6.8451    7.4848 H   0  0  0  0  0  0  0  0  0  0  0  0
   15.6187    6.2735    5.5854 H   0  0  0  0  0  0  0  0  0  0  0  0
   15.5948    4.0356    4.6477 H   0  0  0  0  0  0  0  0  0  0  0  0
   14.0793    2.3033    5.6136 H   0  0  0  0  0  0  0  0  0  0  0  0
   12.6145    2.9142    7.5322 H   0  0  0  0  0  0  0  0  0  0  0  0
  1  3  2  0
  1  4  1  0
  2  4  1  0
  1  5  1  0
  2  6  1  0
  5  6  1  0
  6  7  2  3
  5  8  1  0
  4 10  1  0
 10 11  2  0
 11 12  1  0
 12 13  2  0
 13 14  1  0
 10 15  1  0
 14 15  2  0
  9 16  2  0
  9 17  1  0
 14 18  1  0
 17 18  2  0
 18 19  1  0
 16 20  1  0
 19 20  2  0
  2 21  1  0
  7 22  1  0
  8 23  1  0
  8 24  1  0
  8 25  1  0
 11 26  1  0
 12 27  1  0
 13 28  1  0
 15 29  1  0
 16 30  1  0
 17 31  1  0
 19 32  1  0
 20 33  1  0
 34 35  1  0
 35 36  1  0
 36 37  1  0
 37 38  2  0
 38 39  1  0
 39 40  2  0
 40 41  1  0
 41 42  2  0
 42 37  1  0
 34 43  1  0
 34 44  1  0
 35 45  1  0
 35 46  1  0
 38 47  1  0
 39 48  1  0
 40 49  1  0
 41 50  1  0
 42 51  1  0
  4 34  1  6
M  END
>  <attachment_point>  (433) 
21

>  <score>  (433) 
<NA>

$$$$
4djw
     RDKit          3D

 46 49  0  0  0  0  0  0  0  0999 V2000
   22.4950   11.8750   22.5810 C   0  0  0  0  0  0  0  0  0  0  0  0
   22.5380    9.4930   22.4640 N   0  0  0  0  0  0  0  0  0  0  0  0
   22.3600   13.0630   22.3480 O   0  0  0  0  0  0  0  0  0  0  0  0
   22.3390   10.6680   21.5610 C   0  0  2  0  0  0  0  0  0  0  0  0
   22.7860   11.3350   23.8120 N   0  0  0  0  0  0  0  0  0  0  0  0
   22.7800    9.9140   23.7010 C   0  0  0  0  0  0  0  0  0  0  0  0
   22.9970    9.1110   24.7490 N   0  0  0  0  0  0  0  0  0  0  0  0
   23.0220   12.1410   25.0180 C   0  0  0  0  0  0  0  0  0  0  0  0
   29.1260    9.8230   21.7090 N   0  0  0  0  0  0  0  0  0  0  0  0
   23.4880   10.6920   20.5300 C   0  0  0  0  0  0  0  0  0  0  0  0
   23.2110   10.7890   19.1730 C   0  0  0  0  0  0  0  0  0  0  0  0
   24.2350   10.8650   18.2430 C   0  0  0  0  0  0  0  0  0  0  0  0
   25.5500   10.8410   18.6560 C   0  0  0  0  0  0  0  0  0  0  0  0
   25.8710   10.7460   20.0070 C   0  0  0  0  0  0  0  0  0  0  0  0
   24.8260   10.6610   20.9430 C   0  0  0  0  0  0  0  0  0  0  0  0
   29.8540   10.9130   21.4510 C   0  0  0  0  0  0  0  0  0  0  0  0
   27.8830    9.7800   21.2080 C   0  0  0  0  0  0  0  0  0  0  0  0
   27.3000   10.8010   20.4650 C   0  0  0  0  0  0  0  0  0  0  0  0
   28.0930   11.9190   20.2200 C   0  0  0  0  0  0  0  0  0  0  0  0
   29.3850   11.9780   20.7130 C   0  0  0  0  0  0  0  0  0  0  0  0
    0.0000    0.0000    0.0000 H   0  0  0  0  0  0  0  0  0  0  0  0
    0.0000    0.0000    0.0000 H   0  0  0  0  0  0  0  0  0  0  0  0
    0.0000    0.0000    0.0000 H   0  0  0  0  0  0  0  0  0  0  0  0
    0.0000    0.0000    0.0000 H   0  0  0  0  0  0  0  0  0  0  0  0
    0.0000    0.0000    0.0000 H   0  0  0  0  0  0  0  0  0  0  0  0
    0.0000    0.0000    0.0000 H   0  0  0  0  0  0  0  0  0  0  0  0
    0.0000    0.0000    0.0000 H   0  0  0  0  0  0  0  0  0  0  0  0
    0.0000    0.0000    0.0000 H   0  0  0  0  0  0  0  0  0  0  0  0
    0.0000    0.0000    0.0000 H   0  0  0  0  0  0  0  0  0  0  0  0
    0.0000    0.0000    0.0000 H   0  0  0  0  0  0  0  0  0  0  0  0
    0.0000    0.0000    0.0000 H   0  0  0  0  0  0  0  0  0  0  0  0
    0.0000    0.0000    0.0000 H   0  0  0  0  0  0  0  0  0  0  0  0
    0.0000    0.0000    0.0000 H   0  0  0  0  0  0  0  0  0  0  0  0
   10.8075    5.1611   10.4311 C   0  0  0  0  0  0  0  0  0  0  0  0
   10.8140    5.6862    9.2214 C   0  0  0  0  0  0  0  0  0  0  0  0
    9.8523    5.2319    8.2812 C   0  0  0  0  0  0  0  0  0  0  0  0
    9.8769    5.7927    7.0260 O   0  0  0  0  0  0  0  0  0  0  0  0
    8.9633    4.2657    8.6848 C   0  0  0  0  0  0  0  0  0  0  0  0
    9.0131    3.7624    9.9613 C   0  0  0  0  0  0  0  0  0  0  0  0
    8.1156    2.7892   10.3633 O   0  0  0  0  0  0  0  0  0  0  0  0
    9.9767    4.2215   10.8939 C   0  0  0  0  0  0  0  0  0  0  0  0
   11.5307    6.4459    8.9405 H   0  0  0  0  0  0  0  0  0  0  0  0
    9.0757    5.9773    6.4568 H   0  0  0  0  0  0  0  0  0  0  0  0
    8.2102    3.9037    7.9637 H   0  0  0  0  0  0  0  0  0  0  0  0
    7.1011    2.8751   10.2382 H   0  0  0  0  0  0  0  0  0  0  0  0
    9.9987    3.8139   11.8891 H   0  0  0  0  0  0  0  0  0  0  0  0
  1  3  2  0
  1  4  1  0
  2  4  1  0
  1  5  1  0
  2  6  1  0
  5  6  1  0
  6  7  2  3
  5  8  1  0
  4 10  1  6
 10 11  2  0
 11 12  1  0
 12 13  2  0
 13 14  1  0
 10 15  1  0
 14 15  2  0
  9 16  2  0
  9 17  1  0
 14 18  1  0
 17 18  2  0
 18 19  1  0
 16 20  1  0
 19 20  2  0
  2 21  1  0
  7 22  1  0
  8 23  1  0
  8 24  1  0
  8 25  1  0
 11 26  1  0
 12 27  1  0
 13 28  1  0
 15 29  1  0
 16 30  1  0
 17 31  1  0
 19 32  1  0
 20 33  1  0
 34 35  2  0
 35 36  1  0
 36 37  1  0
 36 38  2  0
 38 39  1  0
 39 40  1  0
 39 41  2  0
 41 34  1  0
 35 42  1  0
 37 43  1  0
 38 44  1  0
 40 45  1  0
 41 46  1  0
  4 34  1  0
M  END
>  <attachment_point>  (434) 
21

>  <score>  (434) 
<NA>

$$$$
4djw
     RDKit          3D

 49 53  0  0  0  0  0  0  0  0999 V2000
   22.4950   11.8750   22.5810 C   0  0  0  0  0  0  0  0  0  0  0  0
   22.5380    9.4930   22.4640 N   0  0  0  0  0  0  0  0  0  0  0  0
   22.3600   13.0630   22.3480 O   0  0  0  0  0  0  0  0  0  0  0  0
   22.3390   10.6680   21.5610 C   0  0  2  0  0  0  0  0  0  0  0  0
   22.7860   11.3350   23.8120 N   0  0  0  0  0  0  0  0  0  0  0  0
   22.7800    9.9140   23.7010 C   0  0  0  0  0  0  0  0  0  0  0  0
   22.9970    9.1110   24.7490 N   0  0  0  0  0  0  0  0  0  0  0  0
   23.0220   12.1410   25.0180 C   0  0  0  0  0  0  0  0  0  0  0  0
   29.1260    9.8230   21.7090 N   0  0  0  0  0  0  0  0  0  0  0  0
   23.4880   10.6920   20.5300 C   0  0  0  0  0  0  0  0  0  0  0  0
   23.2110   10.7890   19.1730 C   0  0  0  0  0  0  0  0  0  0  0  0
   24.2350   10.8650   18.2430 C   0  0  0  0  0  0  0  0  0  0  0  0
   25.5500   10.8410   18.6560 C   0  0  0  0  0  0  0  0  0  0  0  0
   25.8710   10.7460   20.0070 C   0  0  0  0  0  0  0  0  0  0  0  0
   24.8260   10.6610   20.9430 C   0  0  0  0  0  0  0  0  0  0  0  0
   29.8540   10.9130   21.4510 C   0  0  0  0  0  0  0  0  0  0  0  0
   27.8830    9.7800   21.2080 C   0  0  0  0  0  0  0  0  0  0  0  0
   27.3000   10.8010   20.4650 C   0  0  0  0  0  0  0  0  0  0  0  0
   28.0930   11.9190   20.2200 C   0  0  0  0  0  0  0  0  0  0  0  0
   29.3850   11.9780   20.7130 C   0  0  0  0  0  0  0  0  0  0  0  0
    0.0000    0.0000    0.0000 H   0  0  0  0  0  0  0  0  0  0  0  0
    0.0000    0.0000    0.0000 H   0  0  0  0  0  0  0  0  0  0  0  0
    0.0000    0.0000    0.0000 H   0  0  0  0  0  0  0  0  0  0  0  0
    0.0000    0.0000    0.0000 H   0  0  0  0  0  0  0  0  0  0  0  0
    0.0000    0.0000    0.0000 H   0  0  0  0  0  0  0  0  0  0  0  0
    0.0000    0.0000    0.0000 H   0  0  0  0  0  0  0  0  0  0  0  0
    0.0000    0.0000    0.0000 H   0  0  0  0  0  0  0  0  0  0  0  0
    0.0000    0.0000    0.0000 H   0  0  0  0  0  0  0  0  0  0  0  0
    0.0000    0.0000    0.0000 H   0  0  0  0  0  0  0  0  0  0  0  0
    0.0000    0.0000    0.0000 H   0  0  0  0  0  0  0  0  0  0  0  0
    0.0000    0.0000    0.0000 H   0  0  0  0  0  0  0  0  0  0  0  0
    0.0000    0.0000    0.0000 H   0  0  0  0  0  0  0  0  0  0  0  0
    0.0000    0.0000    0.0000 H   0  0  0  0  0  0  0  0  0  0  0  0
   10.8526    5.1826   10.4746 C   0  0  0  0  0  0  0  0  0  0  0  0
    9.9731    6.1009    9.9620 C   0  0  0  0  0  0  0  0  0  0  0  0
    9.0021    5.6959    9.0397 C   0  0  0  0  0  0  0  0  0  0  0  0
    8.9549    4.3698    8.6667 C   0  0  0  0  0  0  0  0  0  0  0  0
    9.8605    3.4776    9.2080 C   0  0  0  0  0  0  0  0  0  0  0  0
    9.8325    2.1892    8.8609 N   0  0  0  0  0  0  0  0  0  0  0  0
   10.7000    1.2952    9.3695 C   0  0  0  0  0  0  0  0  0  0  0  0
   11.6757    1.6421   10.2812 C   0  0  0  0  0  0  0  0  0  0  0  0
   11.7404    2.9636   10.6678 C   0  0  0  0  0  0  0  0  0  0  0  0
   10.8346    3.8651   10.1287 C   0  0  0  0  0  0  0  0  0  0  0  0
   10.0074    7.1495   10.2543 H   0  0  0  0  0  0  0  0  0  0  0  0
    8.3029    6.4020    8.6261 H   0  0  0  0  0  0  0  0  0  0  0  0
    8.1960    4.0770    7.9519 H   0  0  0  0  0  0  0  0  0  0  0  0
   10.5885    0.2706    9.0181 H   0  0  0  0  0  0  0  0  0  0  0  0
   12.3691    0.8877   10.6778 H   0  0  0  0  0  0  0  0  0  0  0  0
   12.4951    3.2673   11.3817 H   0  0  0  0  0  0  0  0  0  0  0  0
  1  3  2  0
  1  4  1  0
  2  4  1  0
  1  5  1  0
  2  6  1  0
  5  6  1  0
  6  7  2  3
  5  8  1  0
  4 10  1  6
 10 11  2  0
 11 12  1  0
 12 13  2  0
 13 14  1  0
 10 15  1  0
 14 15  2  0
  9 16  2  0
  9 17  1  0
 14 18  1  0
 17 18  2  0
 18 19  1  0
 16 20  1  0
 19 20  2  0
  2 21  1  0
  7 22  1  0
  8 23  1  0
  8 24  1  0
  8 25  1  0
 11 26  1  0
 12 27  1  0
 13 28  1  0
 15 29  1  0
 16 30  1  0
 17 31  1  0
 19 32  1  0
 20 33  1  0
 34 35  2  0
 35 36  1  0
 36 37  2  0
 37 38  1  0
 38 39  2  0
 39 40  1  0
 40 41  2  0
 41 42  1  0
 42 43  2  0
 43 34  1  0
 43 38  1  0
 35 44  1  0
 36 45  1  0
 37 46  1  0
 40 47  1  0
 41 48  1  0
 42 49  1  0
  4 34  1  0
M  END
>  <attachment_point>  (435) 
21

>  <score>  (435) 
<NA>

$$$$
4djw
     RDKit          3D

 50 53  0  0  0  0  0  0  0  0999 V2000
   22.4950   11.8750   22.5810 C   0  0  0  0  0  0  0  0  0  0  0  0
   22.5380    9.4930   22.4640 N   0  0  0  0  0  0  0  0  0  0  0  0
   22.3600   13.0630   22.3480 O   0  0  0  0  0  0  0  0  0  0  0  0
   22.3390   10.6680   21.5610 C   0  0  2  0  0  0  0  0  0  0  0  0
   22.7860   11.3350   23.8120 N   0  0  0  0  0  0  0  0  0  0  0  0
   22.7800    9.9140   23.7010 C   0  0  0  0  0  0  0  0  0  0  0  0
   22.9970    9.1110   24.7490 N   0  0  0  0  0  0  0  0  0  0  0  0
   23.0220   12.1410   25.0180 C   0  0  0  0  0  0  0  0  0  0  0  0
   29.1260    9.8230   21.7090 N   0  0  0  0  0  0  0  0  0  0  0  0
   23.4880   10.6920   20.5300 C   0  0  0  0  0  0  0  0  0  0  0  0
   23.2110   10.7890   19.1730 C   0  0  0  0  0  0  0  0  0  0  0  0
   24.2350   10.8650   18.2430 C   0  0  0  0  0  0  0  0  0  0  0  0
   25.5500   10.8410   18.6560 C   0  0  0  0  0  0  0  0  0  0  0  0
   25.8710   10.7460   20.0070 C   0  0  0  0  0  0  0  0  0  0  0  0
   24.8260   10.6610   20.9430 C   0  0  0  0  0  0  0  0  0  0  0  0
   29.8540   10.9130   21.4510 C   0  0  0  0  0  0  0  0  0  0  0  0
   27.8830    9.7800   21.2080 C   0  0  0  0  0  0  0  0  0  0  0  0
   27.3000   10.8010   20.4650 C   0  0  0  0  0  0  0  0  0  0  0  0
   28.0930   11.9190   20.2200 C   0  0  0  0  0  0  0  0  0  0  0  0
   29.3850   11.9780   20.7130 C   0  0  0  0  0  0  0  0  0  0  0  0
    0.0000    0.0000    0.0000 H   0  0  0  0  0  0  0  0  0  0  0  0
    0.0000    0.0000    0.0000 H   0  0  0  0  0  0  0  0  0  0  0  0
    0.0000    0.0000    0.0000 H   0  0  0  0  0  0  0  0  0  0  0  0
    0.0000    0.0000    0.0000 H   0  0  0  0  0  0  0  0  0  0  0  0
    0.0000    0.0000    0.0000 H   0  0  0  0  0  0  0  0  0  0  0  0
    0.0000    0.0000    0.0000 H   0  0  0  0  0  0  0  0  0  0  0  0
    0.0000    0.0000    0.0000 H   0  0  0  0  0  0  0  0  0  0  0  0
    0.0000    0.0000    0.0000 H   0  0  0  0  0  0  0  0  0  0  0  0
    0.0000    0.0000    0.0000 H   0  0  0  0  0  0  0  0  0  0  0  0
    0.0000    0.0000    0.0000 H   0  0  0  0  0  0  0  0  0  0  0  0
    0.0000    0.0000    0.0000 H   0  0  0  0  0  0  0  0  0  0  0  0
    0.0000    0.0000    0.0000 H   0  0  0  0  0  0  0  0  0  0  0  0
    0.0000    0.0000    0.0000 H   0  0  0  0  0  0  0  0  0  0  0  0
   10.9142    5.2121   10.5341 N   0  0  0  0  0  0  0  0  0  0  0  0
   10.5743    3.8347   10.5666 C   0  0  0  0  0  0  0  0  0  0  0  0
   11.2076    3.0386    9.4487 C   0  0  0  0  0  0  0  0  0  0  0  0
   10.9122    3.6325    8.1001 C   0  0  0  0  0  0  0  0  0  0  0  0
   11.2961    5.0649    8.1048 C   0  0  2  0  0  0  0  0  0  0  0  0
   12.7071    5.1258    8.0453 O   0  0  0  0  0  0  0  0  0  0  0  0
   10.8287    5.8535    9.2726 C   0  0  0  0  0  0  0  0  0  0  0  0
   11.0021    3.4059   11.5215 H   0  0  0  0  0  0  0  0  0  0  0  0
    9.4756    3.6439   10.6536 H   0  0  0  0  0  0  0  0  0  0  0  0
   10.8389    2.0124    9.4597 H   0  0  0  0  0  0  0  0  0  0  0  0
   12.3141    3.1063    9.6091 H   0  0  0  0  0  0  0  0  0  0  0  0
   11.5956    3.1081    7.3690 H   0  0  0  0  0  0  0  0  0  0  0  0
    9.8926    3.4276    7.7404 H   0  0  0  0  0  0  0  0  0  0  0  0
   10.8879    5.5354    7.1748 H   0  0  0  0  0  0  0  0  0  0  0  0
   12.9822    5.4225    7.1335 H   0  0  0  0  0  0  0  0  0  0  0  0
   11.5084    6.7582    9.3211 H   0  0  0  0  0  0  0  0  0  0  0  0
    9.8077    6.3085    9.1070 H   0  0  0  0  0  0  0  0  0  0  0  0
  1  3  2  0
  1  4  1  0
  2  4  1  0
  1  5  1  0
  2  6  1  0
  5  6  1  0
  6  7  2  3
  5  8  1  0
  4 10  1  0
 10 11  2  0
 11 12  1  0
 12 13  2  0
 13 14  1  0
 10 15  1  0
 14 15  2  0
  9 16  2  0
  9 17  1  0
 14 18  1  0
 17 18  2  0
 18 19  1  0
 16 20  1  0
 19 20  2  0
  2 21  1  0
  7 22  1  0
  8 23  1  0
  8 24  1  0
  8 25  1  0
 11 26  1  0
 12 27  1  0
 13 28  1  0
 15 29  1  0
 16 30  1  0
 17 31  1  0
 19 32  1  0
 20 33  1  0
 34 35  1  0
 35 36  1  0
 36 37  1  0
 37 38  1  0
 38 39  1  0
 38 40  1  0
 40 34  1  0
 35 41  1  0
 35 42  1  0
 36 43  1  0
 36 44  1  0
 37 45  1  0
 37 46  1  0
 38 47  1  6
 39 48  1  0
 40 49  1  0
 40 50  1  0
  4 34  1  6
M  END
>  <attachment_point>  (436) 
21

>  <score>  (436) 
<NA>

$$$$
4djw
     RDKit          3D

 45 48  0  0  0  0  0  0  0  0999 V2000
   22.4950   11.8750   22.5810 C   0  0  0  0  0  0  0  0  0  0  0  0
   22.5380    9.4930   22.4640 N   0  0  0  0  0  0  0  0  0  0  0  0
   22.3600   13.0630   22.3480 O   0  0  0  0  0  0  0  0  0  0  0  0
   22.3390   10.6680   21.5610 C   0  0  2  0  0  0  0  0  0  0  0  0
   22.7860   11.3350   23.8120 N   0  0  0  0  0  0  0  0  0  0  0  0
   22.7800    9.9140   23.7010 C   0  0  0  0  0  0  0  0  0  0  0  0
   22.9970    9.1110   24.7490 N   0  0  0  0  0  0  0  0  0  0  0  0
   23.0220   12.1410   25.0180 C   0  0  0  0  0  0  0  0  0  0  0  0
   29.1260    9.8230   21.7090 N   0  0  0  0  0  0  0  0  0  0  0  0
   23.4880   10.6920   20.5300 C   0  0  0  0  0  0  0  0  0  0  0  0
   23.2110   10.7890   19.1730 C   0  0  0  0  0  0  0  0  0  0  0  0
   24.2350   10.8650   18.2430 C   0  0  0  0  0  0  0  0  0  0  0  0
   25.5500   10.8410   18.6560 C   0  0  0  0  0  0  0  0  0  0  0  0
   25.8710   10.7460   20.0070 C   0  0  0  0  0  0  0  0  0  0  0  0
   24.8260   10.6610   20.9430 C   0  0  0  0  0  0  0  0  0  0  0  0
   29.8540   10.9130   21.4510 C   0  0  0  0  0  0  0  0  0  0  0  0
   27.8830    9.7800   21.2080 C   0  0  0  0  0  0  0  0  0  0  0  0
   27.3000   10.8010   20.4650 C   0  0  0  0  0  0  0  0  0  0  0  0
   28.0930   11.9190   20.2200 C   0  0  0  0  0  0  0  0  0  0  0  0
   29.3850   11.9780   20.7130 C   0  0  0  0  0  0  0  0  0  0  0  0
    0.0000    0.0000    0.0000 H   0  0  0  0  0  0  0  0  0  0  0  0
    0.0000    0.0000    0.0000 H   0  0  0  0  0  0  0  0  0  0  0  0
    0.0000    0.0000    0.0000 H   0  0  0  0  0  0  0  0  0  0  0  0
    0.0000    0.0000    0.0000 H   0  0  0  0  0  0  0  0  0  0  0  0
    0.0000    0.0000    0.0000 H   0  0  0  0  0  0  0  0  0  0  0  0
    0.0000    0.0000    0.0000 H   0  0  0  0  0  0  0  0  0  0  0  0
    0.0000    0.0000    0.0000 H   0  0  0  0  0  0  0  0  0  0  0  0
    0.0000    0.0000    0.0000 H   0  0  0  0  0  0  0  0  0  0  0  0
    0.0000    0.0000    0.0000 H   0  0  0  0  0  0  0  0  0  0  0  0
    0.0000    0.0000    0.0000 H   0  0  0  0  0  0  0  0  0  0  0  0
    0.0000    0.0000    0.0000 H   0  0  0  0  0  0  0  0  0  0  0  0
    0.0000    0.0000    0.0000 H   0  0  0  0  0  0  0  0  0  0  0  0
    0.0000    0.0000    0.0000 H   0  0  0  0  0  0  0  0  0  0  0  0
   10.8082    5.1615   10.4318 N   0  0  0  0  0  0  0  0  0  0  0  0
    9.6475    5.8652   10.5090 C   0  0  0  0  0  0  0  0  0  0  0  0
    9.5339    6.8169   11.3568 O   0  0  0  0  0  0  0  0  0  0  0  0
    8.5081    5.5292    9.6073 C   0  0  0  0  0  0  0  0  0  0  0  0
    8.1694    4.0658    9.3886 C   0  0  0  0  0  0  0  0  0  0  0  0
    8.7611    4.9003    8.2983 C   0  0  0  0  0  0  0  0  0  0  0  0
   11.1691    4.4377    9.9274 H   0  0  0  0  0  0  0  0  0  0  0  0
    7.6218    6.1654    9.7603 H   0  0  0  0  0  0  0  0  0  0  0  0
    8.8058    3.3622    9.9386 H   0  0  0  0  0  0  0  0  0  0  0  0
    7.0860    3.7799    9.2998 H   0  0  0  0  0  0  0  0  0  0  0  0
    9.8040    4.6273    8.0274 H   0  0  0  0  0  0  0  0  0  0  0  0
    8.1419    5.2295    7.4629 H   0  0  0  0  0  0  0  0  0  0  0  0
  1  3  2  0
  1  4  1  0
  2  4  1  0
  1  5  1  0
  2  6  1  0
  5  6  1  0
  6  7  2  3
  5  8  1  0
  4 10  1  0
 10 11  2  0
 11 12  1  0
 12 13  2  0
 13 14  1  0
 10 15  1  0
 14 15  2  0
  9 16  2  0
  9 17  1  0
 14 18  1  0
 17 18  2  0
 18 19  1  0
 16 20  1  0
 19 20  2  0
  2 21  1  0
  7 22  1  0
  8 23  1  0
  8 24  1  0
  8 25  1  0
 11 26  1  0
 12 27  1  0
 13 28  1  0
 15 29  1  0
 16 30  1  0
 17 31  1  0
 19 32  1  0
 20 33  1  0
 34 35  1  0
 35 36  2  0
 35 37  1  0
 37 38  1  0
 38 39  1  0
 39 37  1  0
 34 40  1  0
 37 41  1  0
 38 42  1  0
 38 43  1  0
 39 44  1  0
 39 45  1  0
  4 34  1  6
M  END
>  <attachment_point>  (437) 
21

>  <score>  (437) 
<NA>

$$$$
4djw
     RDKit          3D

 46 48  0  0  0  0  0  0  0  0999 V2000
   22.4950   11.8750   22.5810 C   0  0  0  0  0  0  0  0  0  0  0  0
   22.5380    9.4930   22.4640 N   0  0  0  0  0  0  0  0  0  0  0  0
   22.3600   13.0630   22.3480 O   0  0  0  0  0  0  0  0  0  0  0  0
   22.3390   10.6680   21.5610 C   0  0  2  0  0  0  0  0  0  0  0  0
   22.7860   11.3350   23.8120 N   0  0  0  0  0  0  0  0  0  0  0  0
   22.7800    9.9140   23.7010 C   0  0  0  0  0  0  0  0  0  0  0  0
   22.9970    9.1110   24.7490 N   0  0  0  0  0  0  0  0  0  0  0  0
   23.0220   12.1410   25.0180 C   0  0  0  0  0  0  0  0  0  0  0  0
   29.1260    9.8230   21.7090 N   0  0  0  0  0  0  0  0  0  0  0  0
   23.4880   10.6920   20.5300 C   0  0  0  0  0  0  0  0  0  0  0  0
   23.2110   10.7890   19.1730 C   0  0  0  0  0  0  0  0  0  0  0  0
   24.2350   10.8650   18.2430 C   0  0  0  0  0  0  0  0  0  0  0  0
   25.5500   10.8410   18.6560 C   0  0  0  0  0  0  0  0  0  0  0  0
   25.8710   10.7460   20.0070 C   0  0  0  0  0  0  0  0  0  0  0  0
   24.8260   10.6610   20.9430 C   0  0  0  0  0  0  0  0  0  0  0  0
   29.8540   10.9130   21.4510 C   0  0  0  0  0  0  0  0  0  0  0  0
   27.8830    9.7800   21.2080 C   0  0  0  0  0  0  0  0  0  0  0  0
   27.3000   10.8010   20.4650 C   0  0  0  0  0  0  0  0  0  0  0  0
   28.0930   11.9190   20.2200 C   0  0  0  0  0  0  0  0  0  0  0  0
   29.3850   11.9780   20.7130 C   0  0  0  0  0  0  0  0  0  0  0  0
    0.0000    0.0000    0.0000 H   0  0  0  0  0  0  0  0  0  0  0  0
    0.0000    0.0000    0.0000 H   0  0  0  0  0  0  0  0  0  0  0  0
    0.0000    0.0000    0.0000 H   0  0  0  0  0  0  0  0  0  0  0  0
    0.0000    0.0000    0.0000 H   0  0  0  0  0  0  0  0  0  0  0  0
    0.0000    0.0000    0.0000 H   0  0  0  0  0  0  0  0  0  0  0  0
    0.0000    0.0000    0.0000 H   0  0  0  0  0  0  0  0  0  0  0  0
    0.0000    0.0000    0.0000 H   0  0  0  0  0  0  0  0  0  0  0  0
    0.0000    0.0000    0.0000 H   0  0  0  0  0  0  0  0  0  0  0  0
    0.0000    0.0000    0.0000 H   0  0  0  0  0  0  0  0  0  0  0  0
    0.0000    0.0000    0.0000 H   0  0  0  0  0  0  0  0  0  0  0  0
    0.0000    0.0000    0.0000 H   0  0  0  0  0  0  0  0  0  0  0  0
    0.0000    0.0000    0.0000 H   0  0  0  0  0  0  0  0  0  0  0  0
    0.0000    0.0000    0.0000 H   0  0  0  0  0  0  0  0  0  0  0  0
   10.8876    5.1994   10.5085 C   0  0  2  0  0  0  0  0  0  0  0  0
   11.1153    3.7530   10.2126 C   0  0  0  0  0  0  0  0  0  0  0  0
   10.9119    6.0868    9.3074 C   0  0  0  0  0  0  0  0  0  0  0  0
   10.5802    7.4978    9.7706 C   0  0  0  0  0  0  0  0  0  0  0  0
    9.8695    5.2897   10.9667 H   0  0  0  0  0  0  0  0  0  0  0  0
   11.9683    3.5661    9.5247 H   0  0  0  0  0  0  0  0  0  0  0  0
   10.1904    3.2117    9.8992 H   0  0  0  0  0  0  0  0  0  0  0  0
   11.4129    3.2623   11.1840 H   0  0  0  0  0  0  0  0  0  0  0  0
   10.1800    5.7744    8.5248 H   0  0  0  0  0  0  0  0  0  0  0  0
   11.8984    6.1330    8.8144 H   0  0  0  0  0  0  0  0  0  0  0  0
   11.3581    8.2221    9.5091 H   0  0  0  0  0  0  0  0  0  0  0  0
   10.4432    7.5532   10.8720 H   0  0  0  0  0  0  0  0  0  0  0  0
    9.5985    7.8146    9.3319 H   0  0  0  0  0  0  0  0  0  0  0  0
  1  3  2  0
  1  4  1  0
  2  4  1  0
  1  5  1  0
  2  6  1  0
  5  6  1  0
  6  7  2  3
  5  8  1  0
  4 10  1  6
 10 11  2  0
 11 12  1  0
 12 13  2  0
 13 14  1  0
 10 15  1  0
 14 15  2  0
  9 16  2  0
  9 17  1  0
 14 18  1  0
 17 18  2  0
 18 19  1  0
 16 20  1  0
 19 20  2  0
  2 21  1  0
  7 22  1  0
  8 23  1  0
  8 24  1  0
  8 25  1  0
 11 26  1  0
 12 27  1  0
 13 28  1  0
 15 29  1  0
 16 30  1  0
 17 31  1  0
 19 32  1  0
 20 33  1  0
 34 35  1  0
 34 36  1  0
 36 37  1  0
 34 38  1  6
 35 39  1  0
 35 40  1  0
 35 41  1  0
 36 42  1  0
 36 43  1  0
 37 44  1  0
 37 45  1  0
 37 46  1  0
  4 34  1  0
M  END
>  <attachment_point>  (438) 
21

>  <score>  (438) 
<NA>

$$$$
4djw
     RDKit          3D

 43 46  0  0  0  0  0  0  0  0999 V2000
   22.4950   11.8750   22.5810 C   0  0  0  0  0  0  0  0  0  0  0  0
   22.5380    9.4930   22.4640 N   0  0  0  0  0  0  0  0  0  0  0  0
   22.3600   13.0630   22.3480 O   0  0  0  0  0  0  0  0  0  0  0  0
   22.3390   10.6680   21.5610 C   0  0  2  0  0  0  0  0  0  0  0  0
   22.7860   11.3350   23.8120 N   0  0  0  0  0  0  0  0  0  0  0  0
   22.7800    9.9140   23.7010 C   0  0  0  0  0  0  0  0  0  0  0  0
   22.9970    9.1110   24.7490 N   0  0  0  0  0  0  0  0  0  0  0  0
   23.0220   12.1410   25.0180 C   0  0  0  0  0  0  0  0  0  0  0  0
   29.1260    9.8230   21.7090 N   0  0  0  0  0  0  0  0  0  0  0  0
   23.4880   10.6920   20.5300 C   0  0  0  0  0  0  0  0  0  0  0  0
   23.2110   10.7890   19.1730 C   0  0  0  0  0  0  0  0  0  0  0  0
   24.2350   10.8650   18.2430 C   0  0  0  0  0  0  0  0  0  0  0  0
   25.5500   10.8410   18.6560 C   0  0  0  0  0  0  0  0  0  0  0  0
   25.8710   10.7460   20.0070 C   0  0  0  0  0  0  0  0  0  0  0  0
   24.8260   10.6610   20.9430 C   0  0  0  0  0  0  0  0  0  0  0  0
   29.8540   10.9130   21.4510 C   0  0  0  0  0  0  0  0  0  0  0  0
   27.8830    9.7800   21.2080 C   0  0  0  0  0  0  0  0  0  0  0  0
   27.3000   10.8010   20.4650 C   0  0  0  0  0  0  0  0  0  0  0  0
   28.0930   11.9190   20.2200 C   0  0  0  0  0  0  0  0  0  0  0  0
   29.3850   11.9780   20.7130 C   0  0  0  0  0  0  0  0  0  0  0  0
    0.0000    0.0000    0.0000 H   0  0  0  0  0  0  0  0  0  0  0  0
    0.0000    0.0000    0.0000 H   0  0  0  0  0  0  0  0  0  0  0  0
    0.0000    0.0000    0.0000 H   0  0  0  0  0  0  0  0  0  0  0  0
    0.0000    0.0000    0.0000 H   0  0  0  0  0  0  0  0  0  0  0  0
    0.0000    0.0000    0.0000 H   0  0  0  0  0  0  0  0  0  0  0  0
    0.0000    0.0000    0.0000 H   0  0  0  0  0  0  0  0  0  0  0  0
    0.0000    0.0000    0.0000 H   0  0  0  0  0  0  0  0  0  0  0  0
    0.0000    0.0000    0.0000 H   0  0  0  0  0  0  0  0  0  0  0  0
    0.0000    0.0000    0.0000 H   0  0  0  0  0  0  0  0  0  0  0  0
    0.0000    0.0000    0.0000 H   0  0  0  0  0  0  0  0  0  0  0  0
    0.0000    0.0000    0.0000 H   0  0  0  0  0  0  0  0  0  0  0  0
    0.0000    0.0000    0.0000 H   0  0  0  0  0  0  0  0  0  0  0  0
    0.0000    0.0000    0.0000 H   0  0  0  0  0  0  0  0  0  0  0  0
   10.8285    5.1712   10.4514 C   0  0  0  0  0  0  0  0  0  0  0  0
   11.6063    4.3827    9.5205 N   0  0  0  0  0  0  0  0  0  0  0  0
   11.8553    3.0650    9.6381 C   0  0  0  0  0  0  0  0  0  0  0  0
   12.6054    2.7601    8.5625 N   0  0  0  0  0  0  0  0  0  0  0  0
   12.8043    3.8696    7.8127 C   0  0  0  0  0  0  0  0  0  0  0  0
   12.1637    4.8707    8.4424 N   0  0  0  0  0  0  0  0  0  0  0  0
   10.1403    4.5840   11.0641 H   0  0  0  0  0  0  0  0  0  0  0  0
   10.4173    6.0871   10.0283 H   0  0  0  0  0  0  0  0  0  0  0  0
   11.5416    2.3862   10.4024 H   0  0  0  0  0  0  0  0  0  0  0  0
   13.3666    3.8865    6.9108 H   0  0  0  0  0  0  0  0  0  0  0  0
  1  3  2  0
  1  4  1  0
  2  4  1  0
  1  5  1  0
  2  6  1  0
  5  6  1  0
  6  7  2  3
  5  8  1  0
  4 10  1  0
 10 11  2  0
 11 12  1  0
 12 13  2  0
 13 14  1  0
 10 15  1  0
 14 15  2  0
  9 16  2  0
  9 17  1  0
 14 18  1  0
 17 18  2  0
 18 19  1  0
 16 20  1  0
 19 20  2  0
  2 21  1  0
  7 22  1  0
  8 23  1  0
  8 24  1  0
  8 25  1  0
 11 26  1  0
 12 27  1  0
 13 28  1  0
 15 29  1  0
 16 30  1  0
 17 31  1  0
 19 32  1  0
 20 33  1  0
 34 35  1  0
 35 36  1  0
 36 37  2  0
 37 38  1  0
 38 39  2  0
 39 35  1  0
 34 40  1  0
 34 41  1  0
 36 42  1  0
 38 43  1  0
  4 34  1  6
M  END
>  <attachment_point>  (439) 
21

>  <score>  (439) 
<NA>

$$$$
4djw
     RDKit          3D

 46 49  0  0  0  0  0  0  0  0999 V2000
   22.4950   11.8750   22.5810 C   0  0  0  0  0  0  0  0  0  0  0  0
   22.5380    9.4930   22.4640 N   0  0  0  0  0  0  0  0  0  0  0  0
   22.3600   13.0630   22.3480 O   0  0  0  0  0  0  0  0  0  0  0  0
   22.3390   10.6680   21.5610 C   0  0  2  0  0  0  0  0  0  0  0  0
   22.7860   11.3350   23.8120 N   0  0  0  0  0  0  0  0  0  0  0  0
   22.7800    9.9140   23.7010 C   0  0  0  0  0  0  0  0  0  0  0  0
   22.9970    9.1110   24.7490 N   0  0  0  0  0  0  0  0  0  0  0  0
   23.0220   12.1410   25.0180 C   0  0  0  0  0  0  0  0  0  0  0  0
   29.1260    9.8230   21.7090 N   0  0  0  0  0  0  0  0  0  0  0  0
   23.4880   10.6920   20.5300 C   0  0  0  0  0  0  0  0  0  0  0  0
   23.2110   10.7890   19.1730 C   0  0  0  0  0  0  0  0  0  0  0  0
   24.2350   10.8650   18.2430 C   0  0  0  0  0  0  0  0  0  0  0  0
   25.5500   10.8410   18.6560 C   0  0  0  0  0  0  0  0  0  0  0  0
   25.8710   10.7460   20.0070 C   0  0  0  0  0  0  0  0  0  0  0  0
   24.8260   10.6610   20.9430 C   0  0  0  0  0  0  0  0  0  0  0  0
   29.8540   10.9130   21.4510 C   0  0  0  0  0  0  0  0  0  0  0  0
   27.8830    9.7800   21.2080 C   0  0  0  0  0  0  0  0  0  0  0  0
   27.3000   10.8010   20.4650 C   0  0  0  0  0  0  0  0  0  0  0  0
   28.0930   11.9190   20.2200 C   0  0  0  0  0  0  0  0  0  0  0  0
   29.3850   11.9780   20.7130 C   0  0  0  0  0  0  0  0  0  0  0  0
    0.0000    0.0000    0.0000 H   0  0  0  0  0  0  0  0  0  0  0  0
    0.0000    0.0000    0.0000 H   0  0  0  0  0  0  0  0  0  0  0  0
    0.0000    0.0000    0.0000 H   0  0  0  0  0  0  0  0  0  0  0  0
    0.0000    0.0000    0.0000 H   0  0  0  0  0  0  0  0  0  0  0  0
    0.0000    0.0000    0.0000 H   0  0  0  0  0  0  0  0  0  0  0  0
    0.0000    0.0000    0.0000 H   0  0  0  0  0  0  0  0  0  0  0  0
    0.0000    0.0000    0.0000 H   0  0  0  0  0  0  0  0  0  0  0  0
    0.0000    0.0000    0.0000 H   0  0  0  0  0  0  0  0  0  0  0  0
    0.0000    0.0000    0.0000 H   0  0  0  0  0  0  0  0  0  0  0  0
    0.0000    0.0000    0.0000 H   0  0  0  0  0  0  0  0  0  0  0  0
    0.0000    0.0000    0.0000 H   0  0  0  0  0  0  0  0  0  0  0  0
    0.0000    0.0000    0.0000 H   0  0  0  0  0  0  0  0  0  0  0  0
    0.0000    0.0000    0.0000 H   0  0  0  0  0  0  0  0  0  0  0  0
   10.9239    5.2167   10.5434 O   0  0  0  0  0  0  0  0  0  0  0  0
   10.8682    3.9684    9.9153 C   0  0  0  0  0  0  0  0  0  0  0  0
    9.8645    3.6567    9.0254 C   0  0  0  0  0  0  0  0  0  0  0  0
    9.8111    2.4194    8.4041 C   0  0  0  0  0  0  0  0  0  0  0  0
   10.7910    1.4843    8.6900 C   0  0  0  0  0  0  0  0  0  0  0  0
   10.7517   -0.0795    7.9257 Cl  0  0  0  0  0  0  0  0  0  0  0  0
   11.7930    1.8205    9.5902 C   0  0  0  0  0  0  0  0  0  0  0  0
   11.8481    3.0509   10.2096 C   0  0  0  0  0  0  0  0  0  0  0  0
   12.8713    3.3452   11.1057 O   0  0  0  0  0  0  0  0  0  0  0  0
    9.0907    4.3988    8.8014 H   0  0  0  0  0  0  0  0  0  0  0  0
    9.0434    2.1711    7.7189 H   0  0  0  0  0  0  0  0  0  0  0  0
   12.5847    1.1107    9.8427 H   0  0  0  0  0  0  0  0  0  0  0  0
   13.7943    3.5999   10.7328 H   0  0  0  0  0  0  0  0  0  0  0  0
  1  3  2  0
  1  4  1  0
  2  4  1  0
  1  5  1  0
  2  6  1  0
  5  6  1  0
  6  7  2  3
  5  8  1  0
  4 10  1  0
 10 11  2  0
 11 12  1  0
 12 13  2  0
 13 14  1  0
 10 15  1  0
 14 15  2  0
  9 16  2  0
  9 17  1  0
 14 18  1  0
 17 18  2  0
 18 19  1  0
 16 20  1  0
 19 20  2  0
  2 21  1  0
  7 22  1  0
  8 23  1  0
  8 24  1  0
  8 25  1  0
 11 26  1  0
 12 27  1  0
 13 28  1  0
 15 29  1  0
 16 30  1  0
 17 31  1  0
 19 32  1  0
 20 33  1  0
 34 35  1  0
 35 36  2  0
 36 37  1  0
 37 38  2  0
 38 39  1  0
 38 40  1  0
 40 41  2  0
 41 42  1  0
 41 35  1  0
 36 43  1  0
 37 44  1  0
 40 45  1  0
 42 46  1  0
  4 34  1  6
M  END
>  <attachment_point>  (440) 
21

>  <score>  (440) 
<NA>

$$$$
4djw
     RDKit          3D

 52 55  0  0  0  0  0  0  0  0999 V2000
   22.4950   11.8750   22.5810 C   0  0  0  0  0  0  0  0  0  0  0  0
   22.5380    9.4930   22.4640 N   0  0  0  0  0  0  0  0  0  0  0  0
   22.3600   13.0630   22.3480 O   0  0  0  0  0  0  0  0  0  0  0  0
   22.3390   10.6680   21.5610 C   0  0  2  0  0  0  0  0  0  0  0  0
   22.7860   11.3350   23.8120 N   0  0  0  0  0  0  0  0  0  0  0  0
   22.7800    9.9140   23.7010 C   0  0  0  0  0  0  0  0  0  0  0  0
   22.9970    9.1110   24.7490 N   0  0  0  0  0  0  0  0  0  0  0  0
   23.0220   12.1410   25.0180 C   0  0  0  0  0  0  0  0  0  0  0  0
   29.1260    9.8230   21.7090 N   0  0  0  0  0  0  0  0  0  0  0  0
   23.4880   10.6920   20.5300 C   0  0  0  0  0  0  0  0  0  0  0  0
   23.2110   10.7890   19.1730 C   0  0  0  0  0  0  0  0  0  0  0  0
   24.2350   10.8650   18.2430 C   0  0  0  0  0  0  0  0  0  0  0  0
   25.5500   10.8410   18.6560 C   0  0  0  0  0  0  0  0  0  0  0  0
   25.8710   10.7460   20.0070 C   0  0  0  0  0  0  0  0  0  0  0  0
   24.8260   10.6610   20.9430 C   0  0  0  0  0  0  0  0  0  0  0  0
   29.8540   10.9130   21.4510 C   0  0  0  0  0  0  0  0  0  0  0  0
   27.8830    9.7800   21.2080 C   0  0  0  0  0  0  0  0  0  0  0  0
   27.3000   10.8010   20.4650 C   0  0  0  0  0  0  0  0  0  0  0  0
   28.0930   11.9190   20.2200 C   0  0  0  0  0  0  0  0  0  0  0  0
   29.3850   11.9780   20.7130 C   0  0  0  0  0  0  0  0  0  0  0  0
    0.0000    0.0000    0.0000 H   0  0  0  0  0  0  0  0  0  0  0  0
    0.0000    0.0000    0.0000 H   0  0  0  0  0  0  0  0  0  0  0  0
    0.0000    0.0000    0.0000 H   0  0  0  0  0  0  0  0  0  0  0  0
    0.0000    0.0000    0.0000 H   0  0  0  0  0  0  0  0  0  0  0  0
    0.0000    0.0000    0.0000 H   0  0  0  0  0  0  0  0  0  0  0  0
    0.0000    0.0000    0.0000 H   0  0  0  0  0  0  0  0  0  0  0  0
    0.0000    0.0000    0.0000 H   0  0  0  0  0  0  0  0  0  0  0  0
    0.0000    0.0000    0.0000 H   0  0  0  0  0  0  0  0  0  0  0  0
    0.0000    0.0000    0.0000 H   0  0  0  0  0  0  0  0  0  0  0  0
    0.0000    0.0000    0.0000 H   0  0  0  0  0  0  0  0  0  0  0  0
    0.0000    0.0000    0.0000 H   0  0  0  0  0  0  0  0  0  0  0  0
    0.0000    0.0000    0.0000 H   0  0  0  0  0  0  0  0  0  0  0  0
    0.0000    0.0000    0.0000 H   0  0  0  0  0  0  0  0  0  0  0  0
   10.8506    5.1817   10.4727 N   0  0  0  0  0  0  0  0  0  0  0  0
    9.9983    4.3411   11.2881 C   0  0  0  0  0  0  0  0  0  0  0  0
   11.6812    4.3963    9.5781 C   0  0  0  0  0  0  0  0  0  0  0  0
   10.9105    3.7939    8.4865 C   0  0  0  0  0  0  0  0  0  0  0  0
   10.3685    2.5404    8.6754 C   0  0  0  0  0  0  0  0  0  0  0  0
    9.6238    1.8874    7.7031 C   0  0  0  0  0  0  0  0  0  0  0  0
    9.4326    2.5431    6.5049 C   0  0  0  0  0  0  0  0  0  0  0  0
    9.9716    3.7970    6.3088 C   0  0  0  0  0  0  0  0  0  0  0  0
   10.7104    4.4405    7.2785 C   0  0  0  0  0  0  0  0  0  0  0  0
   10.4672    3.3761   11.5585 H   0  0  0  0  0  0  0  0  0  0  0  0
    9.7164    4.8471   12.2434 H   0  0  0  0  0  0  0  0  0  0  0  0
    9.0838    4.1646   10.7167 H   0  0  0  0  0  0  0  0  0  0  0  0
   12.5080    4.9724    9.1544 H   0  0  0  0  0  0  0  0  0  0  0  0
   12.1365    3.5809   10.1812 H   0  0  0  0  0  0  0  0  0  0  0  0
   10.4938    1.9833    9.6065 H   0  0  0  0  0  0  0  0  0  0  0  0
    9.2070    0.8935    7.8827 H   0  0  0  0  0  0  0  0  0  0  0  0
    8.8617    2.0739    5.7236 H   0  0  0  0  0  0  0  0  0  0  0  0
    9.8273    4.3239    5.3676 H   0  0  0  0  0  0  0  0  0  0  0  0
   11.1354    5.4335    7.1187 H   0  0  0  0  0  0  0  0  0  0  0  0
  1  3  2  0
  1  4  1  0
  2  4  1  0
  1  5  1  0
  2  6  1  0
  5  6  1  0
  6  7  2  3
  5  8  1  0
  4 10  1  0
 10 11  2  0
 11 12  1  0
 12 13  2  0
 13 14  1  0
 10 15  1  0
 14 15  2  0
  9 16  2  0
  9 17  1  0
 14 18  1  0
 17 18  2  0
 18 19  1  0
 16 20  1  0
 19 20  2  0
  2 21  1  0
  7 22  1  0
  8 23  1  0
  8 24  1  0
  8 25  1  0
 11 26  1  0
 12 27  1  0
 13 28  1  0
 15 29  1  0
 16 30  1  0
 17 31  1  0
 19 32  1  0
 20 33  1  0
 34 35  1  0
 34 36  1  0
 36 37  1  0
 37 38  2  0
 38 39  1  0
 39 40  2  0
 40 41  1  0
 41 42  2  0
 42 37  1  0
 35 43  1  0
 35 44  1  0
 35 45  1  0
 36 46  1  0
 36 47  1  0
 38 48  1  0
 39 49  1  0
 40 50  1  0
 41 51  1  0
 42 52  1  0
  4 34  1  6
M  END
>  <attachment_point>  (441) 
21

>  <score>  (441) 
<NA>

$$$$
4djw
     RDKit          3D

 44 47  0  0  0  0  0  0  0  0999 V2000
   22.4950   11.8750   22.5810 C   0  0  0  0  0  0  0  0  0  0  0  0
   22.5380    9.4930   22.4640 N   0  0  0  0  0  0  0  0  0  0  0  0
   22.3600   13.0630   22.3480 O   0  0  0  0  0  0  0  0  0  0  0  0
   22.3390   10.6680   21.5610 C   0  0  2  0  0  0  0  0  0  0  0  0
   22.7860   11.3350   23.8120 N   0  0  0  0  0  0  0  0  0  0  0  0
   22.7800    9.9140   23.7010 C   0  0  0  0  0  0  0  0  0  0  0  0
   22.9970    9.1110   24.7490 N   0  0  0  0  0  0  0  0  0  0  0  0
   23.0220   12.1410   25.0180 C   0  0  0  0  0  0  0  0  0  0  0  0
   29.1260    9.8230   21.7090 N   0  0  0  0  0  0  0  0  0  0  0  0
   23.4880   10.6920   20.5300 C   0  0  0  0  0  0  0  0  0  0  0  0
   23.2110   10.7890   19.1730 C   0  0  0  0  0  0  0  0  0  0  0  0
   24.2350   10.8650   18.2430 C   0  0  0  0  0  0  0  0  0  0  0  0
   25.5500   10.8410   18.6560 C   0  0  0  0  0  0  0  0  0  0  0  0
   25.8710   10.7460   20.0070 C   0  0  0  0  0  0  0  0  0  0  0  0
   24.8260   10.6610   20.9430 C   0  0  0  0  0  0  0  0  0  0  0  0
   29.8540   10.9130   21.4510 C   0  0  0  0  0  0  0  0  0  0  0  0
   27.8830    9.7800   21.2080 C   0  0  0  0  0  0  0  0  0  0  0  0
   27.3000   10.8010   20.4650 C   0  0  0  0  0  0  0  0  0  0  0  0
   28.0930   11.9190   20.2200 C   0  0  0  0  0  0  0  0  0  0  0  0
   29.3850   11.9780   20.7130 C   0  0  0  0  0  0  0  0  0  0  0  0
    0.0000    0.0000    0.0000 H   0  0  0  0  0  0  0  0  0  0  0  0
    0.0000    0.0000    0.0000 H   0  0  0  0  0  0  0  0  0  0  0  0
    0.0000    0.0000    0.0000 H   0  0  0  0  0  0  0  0  0  0  0  0
    0.0000    0.0000    0.0000 H   0  0  0  0  0  0  0  0  0  0  0  0
    0.0000    0.0000    0.0000 H   0  0  0  0  0  0  0  0  0  0  0  0
    0.0000    0.0000    0.0000 H   0  0  0  0  0  0  0  0  0  0  0  0
    0.0000    0.0000    0.0000 H   0  0  0  0  0  0  0  0  0  0  0  0
    0.0000    0.0000    0.0000 H   0  0  0  0  0  0  0  0  0  0  0  0
    0.0000    0.0000    0.0000 H   0  0  0  0  0  0  0  0  0  0  0  0
    0.0000    0.0000    0.0000 H   0  0  0  0  0  0  0  0  0  0  0  0
    0.0000    0.0000    0.0000 H   0  0  0  0  0  0  0  0  0  0  0  0
    0.0000    0.0000    0.0000 H   0  0  0  0  0  0  0  0  0  0  0  0
    0.0000    0.0000    0.0000 H   0  0  0  0  0  0  0  0  0  0  0  0
   10.8329    5.1732   10.4556 C   0  0  0  0  0  0  0  0  0  0  0  0
   10.3854    3.8967   10.5790 C   0  0  0  0  0  0  0  0  0  0  0  0
    9.4505    3.4356    9.6844 N   0  0  0  0  0  0  0  0  0  0  0  0
    8.9979    4.2405    8.7142 C   0  0  0  0  0  0  0  0  0  0  0  0
    8.0192    3.7206    7.7972 N   0  0  0  0  0  0  0  0  0  0  0  0
    9.4679    5.5249    8.6143 C   0  0  0  0  0  0  0  0  0  0  0  0
   10.4053    5.9733    9.5184 N   0  0  0  0  0  0  0  0  0  0  0  0
   10.7673    3.2702   11.3701 H   0  0  0  0  0  0  0  0  0  0  0  0
    8.3513    3.0643    7.0639 H   0  0  0  0  0  0  0  0  0  0  0  0
    7.0116    4.0001    7.8752 H   0  0  0  0  0  0  0  0  0  0  0  0
    9.1160    6.1828    7.8432 H   0  0  0  0  0  0  0  0  0  0  0  0
  1  3  2  0
  1  4  1  0
  2  4  1  0
  1  5  1  0
  2  6  1  0
  5  6  1  0
  6  7  2  3
  5  8  1  0
  4 10  1  6
 10 11  2  0
 11 12  1  0
 12 13  2  0
 13 14  1  0
 10 15  1  0
 14 15  2  0
  9 16  2  0
  9 17  1  0
 14 18  1  0
 17 18  2  0
 18 19  1  0
 16 20  1  0
 19 20  2  0
  2 21  1  0
  7 22  1  0
  8 23  1  0
  8 24  1  0
  8 25  1  0
 11 26  1  0
 12 27  1  0
 13 28  1  0
 15 29  1  0
 16 30  1  0
 17 31  1  0
 19 32  1  0
 20 33  1  0
 34 35  2  0
 35 36  1  0
 36 37  2  0
 37 38  1  0
 37 39  1  0
 39 40  2  0
 40 34  1  0
 35 41  1  0
 38 42  1  0
 38 43  1  0
 39 44  1  0
  4 34  1  0
M  END
>  <attachment_point>  (442) 
21

>  <score>  (442) 
<NA>

$$$$
4djw
     RDKit          3D

 42 44  0  0  0  0  0  0  0  0999 V2000
   22.4950   11.8750   22.5810 C   0  0  0  0  0  0  0  0  0  0  0  0
   22.5380    9.4930   22.4640 N   0  0  0  0  0  0  0  0  0  0  0  0
   22.3600   13.0630   22.3480 O   0  0  0  0  0  0  0  0  0  0  0  0
   22.3390   10.6680   21.5610 C   0  0  2  0  0  0  0  0  0  0  0  0
   22.7860   11.3350   23.8120 N   0  0  0  0  0  0  0  0  0  0  0  0
   22.7800    9.9140   23.7010 C   0  0  0  0  0  0  0  0  0  0  0  0
   22.9970    9.1110   24.7490 N   0  0  0  0  0  0  0  0  0  0  0  0
   23.0220   12.1410   25.0180 C   0  0  0  0  0  0  0  0  0  0  0  0
   29.1260    9.8230   21.7090 N   0  0  0  0  0  0  0  0  0  0  0  0
   23.4880   10.6920   20.5300 C   0  0  0  0  0  0  0  0  0  0  0  0
   23.2110   10.7890   19.1730 C   0  0  0  0  0  0  0  0  0  0  0  0
   24.2350   10.8650   18.2430 C   0  0  0  0  0  0  0  0  0  0  0  0
   25.5500   10.8410   18.6560 C   0  0  0  0  0  0  0  0  0  0  0  0
   25.8710   10.7460   20.0070 C   0  0  0  0  0  0  0  0  0  0  0  0
   24.8260   10.6610   20.9430 C   0  0  0  0  0  0  0  0  0  0  0  0
   29.8540   10.9130   21.4510 C   0  0  0  0  0  0  0  0  0  0  0  0
   27.8830    9.7800   21.2080 C   0  0  0  0  0  0  0  0  0  0  0  0
   27.3000   10.8010   20.4650 C   0  0  0  0  0  0  0  0  0  0  0  0
   28.0930   11.9190   20.2200 C   0  0  0  0  0  0  0  0  0  0  0  0
   29.3850   11.9780   20.7130 C   0  0  0  0  0  0  0  0  0  0  0  0
    0.0000    0.0000    0.0000 H   0  0  0  0  0  0  0  0  0  0  0  0
    0.0000    0.0000    0.0000 H   0  0  0  0  0  0  0  0  0  0  0  0
    0.0000    0.0000    0.0000 H   0  0  0  0  0  0  0  0  0  0  0  0
    0.0000    0.0000    0.0000 H   0  0  0  0  0  0  0  0  0  0  0  0
    0.0000    0.0000    0.0000 H   0  0  0  0  0  0  0  0  0  0  0  0
    0.0000    0.0000    0.0000 H   0  0  0  0  0  0  0  0  0  0  0  0
    0.0000    0.0000    0.0000 H   0  0  0  0  0  0  0  0  0  0  0  0
    0.0000    0.0000    0.0000 H   0  0  0  0  0  0  0  0  0  0  0  0
    0.0000    0.0000    0.0000 H   0  0  0  0  0  0  0  0  0  0  0  0
    0.0000    0.0000    0.0000 H   0  0  0  0  0  0  0  0  0  0  0  0
    0.0000    0.0000    0.0000 H   0  0  0  0  0  0  0  0  0  0  0  0
    0.0000    0.0000    0.0000 H   0  0  0  0  0  0  0  0  0  0  0  0
    0.0000    0.0000    0.0000 H   0  0  0  0  0  0  0  0  0  0  0  0
   10.7735    5.1449   10.3983 C   0  0  2  0  0  0  0  0  0  0  0  0
    9.6641    5.5646   11.2811 C   0  0  0  0  0  0  0  0  0  0  0  0
   11.1715    3.8158   10.3996 N   0  0  0  0  0  0  0  0  0  0  0  0
   11.1373    5.8326    9.6693 H   0  0  0  0  0  0  0  0  0  0  0  0
    9.6432    6.6673   11.3436 H   0  0  0  0  0  0  0  0  0  0  0  0
    9.7629    5.2124   12.3477 H   0  0  0  0  0  0  0  0  0  0  0  0
    8.7332    5.1560   10.9098 H   0  0  0  0  0  0  0  0  0  0  0  0
   11.1527    3.3991   11.3715 H   0  0  0  0  0  0  0  0  0  0  0  0
   12.1697    3.7429   10.0411 H   0  0  0  0  0  0  0  0  0  0  0  0
  1  3  2  0
  1  4  1  0
  2  4  1  0
  1  5  1  0
  2  6  1  0
  5  6  1  0
  6  7  2  3
  5  8  1  0
  4 10  1  6
 10 11  2  0
 11 12  1  0
 12 13  2  0
 13 14  1  0
 10 15  1  0
 14 15  2  0
  9 16  2  0
  9 17  1  0
 14 18  1  0
 17 18  2  0
 18 19  1  0
 16 20  1  0
 19 20  2  0
  2 21  1  0
  7 22  1  0
  8 23  1  0
  8 24  1  0
  8 25  1  0
 11 26  1  0
 12 27  1  0
 13 28  1  0
 15 29  1  0
 16 30  1  0
 17 31  1  0
 19 32  1  0
 20 33  1  0
 34 35  1  0
 34 36  1  0
 34 37  1  1
 35 38  1  0
 35 39  1  0
 35 40  1  0
 36 41  1  0
 36 42  1  0
  4 34  1  0
M  END
>  <attachment_point>  (443) 
21

>  <score>  (443) 
<NA>

$$$$
4djw
     RDKit          3D

 46 49  0  0  0  0  0  0  0  0999 V2000
   22.4950   11.8750   22.5810 C   0  0  0  0  0  0  0  0  0  0  0  0
   22.5380    9.4930   22.4640 N   0  0  0  0  0  0  0  0  0  0  0  0
   22.3600   13.0630   22.3480 O   0  0  0  0  0  0  0  0  0  0  0  0
   22.3390   10.6680   21.5610 C   0  0  2  0  0  0  0  0  0  0  0  0
   22.7860   11.3350   23.8120 N   0  0  0  0  0  0  0  0  0  0  0  0
   22.7800    9.9140   23.7010 C   0  0  0  0  0  0  0  0  0  0  0  0
   22.9970    9.1110   24.7490 N   0  0  0  0  0  0  0  0  0  0  0  0
   23.0220   12.1410   25.0180 C   0  0  0  0  0  0  0  0  0  0  0  0
   29.1260    9.8230   21.7090 N   0  0  0  0  0  0  0  0  0  0  0  0
   23.4880   10.6920   20.5300 C   0  0  0  0  0  0  0  0  0  0  0  0
   23.2110   10.7890   19.1730 C   0  0  0  0  0  0  0  0  0  0  0  0
   24.2350   10.8650   18.2430 C   0  0  0  0  0  0  0  0  0  0  0  0
   25.5500   10.8410   18.6560 C   0  0  0  0  0  0  0  0  0  0  0  0
   25.8710   10.7460   20.0070 C   0  0  0  0  0  0  0  0  0  0  0  0
   24.8260   10.6610   20.9430 C   0  0  0  0  0  0  0  0  0  0  0  0
   29.8540   10.9130   21.4510 C   0  0  0  0  0  0  0  0  0  0  0  0
   27.8830    9.7800   21.2080 C   0  0  0  0  0  0  0  0  0  0  0  0
   27.3000   10.8010   20.4650 C   0  0  0  0  0  0  0  0  0  0  0  0
   28.0930   11.9190   20.2200 C   0  0  0  0  0  0  0  0  0  0  0  0
   29.3850   11.9780   20.7130 C   0  0  0  0  0  0  0  0  0  0  0  0
    0.0000    0.0000    0.0000 H   0  0  0  0  0  0  0  0  0  0  0  0
    0.0000    0.0000    0.0000 H   0  0  0  0  0  0  0  0  0  0  0  0
    0.0000    0.0000    0.0000 H   0  0  0  0  0  0  0  0  0  0  0  0
    0.0000    0.0000    0.0000 H   0  0  0  0  0  0  0  0  0  0  0  0
    0.0000    0.0000    0.0000 H   0  0  0  0  0  0  0  0  0  0  0  0
    0.0000    0.0000    0.0000 H   0  0  0  0  0  0  0  0  0  0  0  0
    0.0000    0.0000    0.0000 H   0  0  0  0  0  0  0  0  0  0  0  0
    0.0000    0.0000    0.0000 H   0  0  0  0  0  0  0  0  0  0  0  0
    0.0000    0.0000    0.0000 H   0  0  0  0  0  0  0  0  0  0  0  0
    0.0000    0.0000    0.0000 H   0  0  0  0  0  0  0  0  0  0  0  0
    0.0000    0.0000    0.0000 H   0  0  0  0  0  0  0  0  0  0  0  0
    0.0000    0.0000    0.0000 H   0  0  0  0  0  0  0  0  0  0  0  0
    0.0000    0.0000    0.0000 H   0  0  0  0  0  0  0  0  0  0  0  0
   10.9085    5.2093   10.5286 N   0  0  0  0  0  0  0  0  0  0  0  0
   11.3574    5.4595    9.1894 C   0  0  0  0  0  0  0  0  0  0  0  0
   12.6581    4.7406    8.9369 C   0  0  0  0  0  0  0  0  0  0  0  0
   13.9324    5.1982    9.1379 C   0  0  0  0  0  0  0  0  0  0  0  0
   14.9402    4.3763    8.8400 C   0  0  0  0  0  0  0  0  0  0  0  0
   14.6207    3.1355    8.3551 C   0  0  0  0  0  0  0  0  0  0  0  0
   12.9094    3.1655    8.3339 S   0  0  0  0  0  0  0  0  0  0  0  0
    9.9140    5.3855   10.6886 H   0  0  0  0  0  0  0  0  0  0  0  0
   10.6305    5.0411    8.4806 H   0  0  0  0  0  0  0  0  0  0  0  0
   11.5082    6.5563    9.0836 H   0  0  0  0  0  0  0  0  0  0  0  0
   14.0741    6.2224    9.5358 H   0  0  0  0  0  0  0  0  0  0  0  0
   16.0094    4.6395    8.9622 H   0  0  0  0  0  0  0  0  0  0  0  0
   15.3100    2.3248    8.0556 H   0  0  0  0  0  0  0  0  0  0  0  0
  1  3  2  0
  1  4  1  0
  2  4  1  0
  1  5  1  0
  2  6  1  0
  5  6  1  0
  6  7  2  3
  5  8  1  0
  4 10  1  0
 10 11  2  0
 11 12  1  0
 12 13  2  0
 13 14  1  0
 10 15  1  0
 14 15  2  0
  9 16  2  0
  9 17  1  0
 14 18  1  0
 17 18  2  0
 18 19  1  0
 16 20  1  0
 19 20  2  0
  2 21  1  0
  7 22  1  0
  8 23  1  0
  8 24  1  0
  8 25  1  0
 11 26  1  0
 12 27  1  0
 13 28  1  0
 15 29  1  0
 16 30  1  0
 17 31  1  0
 19 32  1  0
 20 33  1  0
 34 35  1  0
 35 36  1  0
 36 37  2  0
 37 38  1  0
 38 39  2  0
 39 40  1  0
 40 36  1  0
 34 41  1  0
 35 42  1  0
 35 43  1  0
 37 44  1  0
 38 45  1  0
 39 46  1  0
  4 34  1  6
M  END
>  <attachment_point>  (444) 
21

>  <score>  (444) 
<NA>

$$$$
4djw
     RDKit          3D

 55 58  0  0  0  0  0  0  0  0999 V2000
   22.4950   11.8750   22.5810 C   0  0  0  0  0  0  0  0  0  0  0  0
   22.5380    9.4930   22.4640 N   0  0  0  0  0  0  0  0  0  0  0  0
   22.3600   13.0630   22.3480 O   0  0  0  0  0  0  0  0  0  0  0  0
   22.3390   10.6680   21.5610 C   0  0  2  0  0  0  0  0  0  0  0  0
   22.7860   11.3350   23.8120 N   0  0  0  0  0  0  0  0  0  0  0  0
   22.7800    9.9140   23.7010 C   0  0  0  0  0  0  0  0  0  0  0  0
   22.9970    9.1110   24.7490 N   0  0  0  0  0  0  0  0  0  0  0  0
   23.0220   12.1410   25.0180 C   0  0  0  0  0  0  0  0  0  0  0  0
   29.1260    9.8230   21.7090 N   0  0  0  0  0  0  0  0  0  0  0  0
   23.4880   10.6920   20.5300 C   0  0  0  0  0  0  0  0  0  0  0  0
   23.2110   10.7890   19.1730 C   0  0  0  0  0  0  0  0  0  0  0  0
   24.2350   10.8650   18.2430 C   0  0  0  0  0  0  0  0  0  0  0  0
   25.5500   10.8410   18.6560 C   0  0  0  0  0  0  0  0  0  0  0  0
   25.8710   10.7460   20.0070 C   0  0  0  0  0  0  0  0  0  0  0  0
   24.8260   10.6610   20.9430 C   0  0  0  0  0  0  0  0  0  0  0  0
   29.8540   10.9130   21.4510 C   0  0  0  0  0  0  0  0  0  0  0  0
   27.8830    9.7800   21.2080 C   0  0  0  0  0  0  0  0  0  0  0  0
   27.3000   10.8010   20.4650 C   0  0  0  0  0  0  0  0  0  0  0  0
   28.0930   11.9190   20.2200 C   0  0  0  0  0  0  0  0  0  0  0  0
   29.3850   11.9780   20.7130 C   0  0  0  0  0  0  0  0  0  0  0  0
    0.0000    0.0000    0.0000 H   0  0  0  0  0  0  0  0  0  0  0  0
    0.0000    0.0000    0.0000 H   0  0  0  0  0  0  0  0  0  0  0  0
    0.0000    0.0000    0.0000 H   0  0  0  0  0  0  0  0  0  0  0  0
    0.0000    0.0000    0.0000 H   0  0  0  0  0  0  0  0  0  0  0  0
    0.0000    0.0000    0.0000 H   0  0  0  0  0  0  0  0  0  0  0  0
    0.0000    0.0000    0.0000 H   0  0  0  0  0  0  0  0  0  0  0  0
    0.0000    0.0000    0.0000 H   0  0  0  0  0  0  0  0  0  0  0  0
    0.0000    0.0000    0.0000 H   0  0  0  0  0  0  0  0  0  0  0  0
    0.0000    0.0000    0.0000 H   0  0  0  0  0  0  0  0  0  0  0  0
    0.0000    0.0000    0.0000 H   0  0  0  0  0  0  0  0  0  0  0  0
    0.0000    0.0000    0.0000 H   0  0  0  0  0  0  0  0  0  0  0  0
    0.0000    0.0000    0.0000 H   0  0  0  0  0  0  0  0  0  0  0  0
    0.0000    0.0000    0.0000 H   0  0  0  0  0  0  0  0  0  0  0  0
   10.8272    5.1705   10.4501 N   0  0  0  0  0  0  0  0  0  0  0  0
   10.5826    6.4888    9.8867 C   0  0  0  0  0  0  0  0  0  0  0  0
   10.0754    7.4600   10.8924 C   0  0  0  0  0  0  0  0  0  0  0  0
    8.8395    7.1148   11.5304 N   0  0  0  0  0  0  0  0  0  0  0  0
    8.5555    8.1425   12.4962 C   0  0  0  0  0  0  0  0  0  0  0  0
    7.1450    8.3441   12.8484 C   0  0  0  0  0  0  0  0  0  0  0  0
    6.2288    8.0722   11.8458 O   0  0  0  0  0  0  0  0  0  0  0  0
    6.8604    8.0526   10.6054 C   0  0  0  0  0  0  0  0  0  0  0  0
    7.7636    6.8090   10.6540 C   0  0  0  0  0  0  0  0  0  0  0  0
   11.5044    4.6871    9.8038 H   0  0  0  0  0  0  0  0  0  0  0  0
   11.5421    6.9215    9.4725 H   0  0  0  0  0  0  0  0  0  0  0  0
    9.9429    6.3565    8.9962 H   0  0  0  0  0  0  0  0  0  0  0  0
    9.9722    8.4543   10.3668 H   0  0  0  0  0  0  0  0  0  0  0  0
   10.8519    7.6419   11.6633 H   0  0  0  0  0  0  0  0  0  0  0  0
    9.0974    7.8236   13.4391 H   0  0  0  0  0  0  0  0  0  0  0  0
    9.0483    9.1021   12.2224 H   0  0  0  0  0  0  0  0  0  0  0  0
    6.8385    7.7614   13.7564 H   0  0  0  0  0  0  0  0  0  0  0  0
    6.9738    9.4166   13.1351 H   0  0  0  0  0  0  0  0  0  0  0  0
    7.4510    8.9583   10.4713 H   0  0  0  0  0  0  0  0  0  0  0  0
    6.1160    7.9814    9.8095 H   0  0  0  0  0  0  0  0  0  0  0  0
    8.0451    6.5377    9.6353 H   0  0  0  0  0  0  0  0  0  0  0  0
    7.1765    5.9691   11.1311 H   0  0  0  0  0  0  0  0  0  0  0  0
  1  3  2  0
  1  4  1  0
  2  4  1  0
  1  5  1  0
  2  6  1  0
  5  6  1  0
  6  7  2  3
  5  8  1  0
  4 10  1  0
 10 11  2  0
 11 12  1  0
 12 13  2  0
 13 14  1  0
 10 15  1  0
 14 15  2  0
  9 16  2  0
  9 17  1  0
 14 18  1  0
 17 18  2  0
 18 19  1  0
 16 20  1  0
 19 20  2  0
  2 21  1  0
  7 22  1  0
  8 23  1  0
  8 24  1  0
  8 25  1  0
 11 26  1  0
 12 27  1  0
 13 28  1  0
 15 29  1  0
 16 30  1  0
 17 31  1  0
 19 32  1  0
 20 33  1  0
 34 35  1  0
 35 36  1  0
 36 37  1  0
 37 38  1  0
 38 39  1  0
 39 40  1  0
 40 41  1  0
 41 42  1  0
 42 37  1  0
 34 43  1  0
 35 44  1  0
 35 45  1  0
 36 46  1  0
 36 47  1  0
 38 48  1  0
 38 49  1  0
 39 50  1  0
 39 51  1  0
 41 52  1  0
 41 53  1  0
 42 54  1  0
 42 55  1  0
  4 34  1  6
M  END
>  <attachment_point>  (445) 
21

>  <score>  (445) 
<NA>

$$$$
4djw
     RDKit          3D

 49 52  0  0  0  0  0  0  0  0999 V2000
   22.4950   11.8750   22.5810 C   0  0  0  0  0  0  0  0  0  0  0  0
   22.5380    9.4930   22.4640 N   0  0  0  0  0  0  0  0  0  0  0  0
   22.3600   13.0630   22.3480 O   0  0  0  0  0  0  0  0  0  0  0  0
   22.3390   10.6680   21.5610 C   0  0  2  0  0  0  0  0  0  0  0  0
   22.7860   11.3350   23.8120 N   0  0  0  0  0  0  0  0  0  0  0  0
   22.7800    9.9140   23.7010 C   0  0  0  0  0  0  0  0  0  0  0  0
   22.9970    9.1110   24.7490 N   0  0  0  0  0  0  0  0  0  0  0  0
   23.0220   12.1410   25.0180 C   0  0  0  0  0  0  0  0  0  0  0  0
   29.1260    9.8230   21.7090 N   0  0  0  0  0  0  0  0  0  0  0  0
   23.4880   10.6920   20.5300 C   0  0  0  0  0  0  0  0  0  0  0  0
   23.2110   10.7890   19.1730 C   0  0  0  0  0  0  0  0  0  0  0  0
   24.2350   10.8650   18.2430 C   0  0  0  0  0  0  0  0  0  0  0  0
   25.5500   10.8410   18.6560 C   0  0  0  0  0  0  0  0  0  0  0  0
   25.8710   10.7460   20.0070 C   0  0  0  0  0  0  0  0  0  0  0  0
   24.8260   10.6610   20.9430 C   0  0  0  0  0  0  0  0  0  0  0  0
   29.8540   10.9130   21.4510 C   0  0  0  0  0  0  0  0  0  0  0  0
   27.8830    9.7800   21.2080 C   0  0  0  0  0  0  0  0  0  0  0  0
   27.3000   10.8010   20.4650 C   0  0  0  0  0  0  0  0  0  0  0  0
   28.0930   11.9190   20.2200 C   0  0  0  0  0  0  0  0  0  0  0  0
   29.3850   11.9780   20.7130 C   0  0  0  0  0  0  0  0  0  0  0  0
    0.0000    0.0000    0.0000 H   0  0  0  0  0  0  0  0  0  0  0  0
    0.0000    0.0000    0.0000 H   0  0  0  0  0  0  0  0  0  0  0  0
    0.0000    0.0000    0.0000 H   0  0  0  0  0  0  0  0  0  0  0  0
    0.0000    0.0000    0.0000 H   0  0  0  0  0  0  0  0  0  0  0  0
    0.0000    0.0000    0.0000 H   0  0  0  0  0  0  0  0  0  0  0  0
    0.0000    0.0000    0.0000 H   0  0  0  0  0  0  0  0  0  0  0  0
    0.0000    0.0000    0.0000 H   0  0  0  0  0  0  0  0  0  0  0  0
    0.0000    0.0000    0.0000 H   0  0  0  0  0  0  0  0  0  0  0  0
    0.0000    0.0000    0.0000 H   0  0  0  0  0  0  0  0  0  0  0  0
    0.0000    0.0000    0.0000 H   0  0  0  0  0  0  0  0  0  0  0  0
    0.0000    0.0000    0.0000 H   0  0  0  0  0  0  0  0  0  0  0  0
    0.0000    0.0000    0.0000 H   0  0  0  0  0  0  0  0  0  0  0  0
    0.0000    0.0000    0.0000 H   0  0  0  0  0  0  0  0  0  0  0  0
   10.9300    5.2196   10.5493 N   0  0  0  0  0  0  0  0  0  0  0  0
    9.8665    6.0452   10.0549 C   0  0  0  0  0  0  0  0  0  0  0  0
   10.2320    6.9062    8.8972 C   0  0  0  0  0  0  0  0  0  0  0  0
   11.2992    6.1178    7.7298 S   0  0  0  0  0  6  0  0  0  0  0  0
   12.0858    7.1360    6.9766 O   0  0  0  0  0  0  0  0  0  0  0  0
   10.5242    5.2018    6.8030 O   0  0  0  0  0  0  0  0  0  0  0  0
   12.3805    5.0351    8.6777 C   0  0  0  0  0  0  0  0  0  0  0  0
   11.4237    4.2695    9.6034 C   0  0  0  0  0  0  0  0  0  0  0  0
    9.5909    6.7375   10.9053 H   0  0  0  0  0  0  0  0  0  0  0  0
    8.9167    5.4665    9.8709 H   0  0  0  0  0  0  0  0  0  0  0  0
   10.7728    7.8356    9.2428 H   0  0  0  0  0  0  0  0  0  0  0  0
    9.2832    7.1878    8.3693 H   0  0  0  0  0  0  0  0  0  0  0  0
   12.9944    5.6915    9.3306 H   0  0  0  0  0  0  0  0  0  0  0  0
   12.9513    4.3735    8.0303 H   0  0  0  0  0  0  0  0  0  0  0  0
   12.0161    3.4958   10.1003 H   0  0  0  0  0  0  0  0  0  0  0  0
   10.6292    3.8040    8.9775 H   0  0  0  0  0  0  0  0  0  0  0  0
  1  3  2  0
  1  4  1  0
  2  4  1  0
  1  5  1  0
  2  6  1  0
  5  6  1  0
  6  7  2  3
  5  8  1  0
  4 10  1  0
 10 11  2  0
 11 12  1  0
 12 13  2  0
 13 14  1  0
 10 15  1  0
 14 15  2  0
  9 16  2  0
  9 17  1  0
 14 18  1  0
 17 18  2  0
 18 19  1  0
 16 20  1  0
 19 20  2  0
  2 21  1  0
  7 22  1  0
  8 23  1  0
  8 24  1  0
  8 25  1  0
 11 26  1  0
 12 27  1  0
 13 28  1  0
 15 29  1  0
 16 30  1  0
 17 31  1  0
 19 32  1  0
 20 33  1  0
 34 35  1  0
 35 36  1  0
 36 37  1  0
 37 38  2  0
 37 39  2  0
 37 40  1  0
 40 41  1  0
 41 34  1  0
 35 42  1  0
 35 43  1  0
 36 44  1  0
 36 45  1  0
 40 46  1  0
 40 47  1  0
 41 48  1  0
 41 49  1  0
  4 34  1  6
M  END
>  <attachment_point>  (446) 
21

>  <score>  (446) 
<NA>

$$$$
4djw
     RDKit          3D

 53 56  0  0  0  0  0  0  0  0999 V2000
   22.4950   11.8750   22.5810 C   0  0  0  0  0  0  0  0  0  0  0  0
   22.5380    9.4930   22.4640 N   0  0  0  0  0  0  0  0  0  0  0  0
   22.3600   13.0630   22.3480 O   0  0  0  0  0  0  0  0  0  0  0  0
   22.3390   10.6680   21.5610 C   0  0  2  0  0  0  0  0  0  0  0  0
   22.7860   11.3350   23.8120 N   0  0  0  0  0  0  0  0  0  0  0  0
   22.7800    9.9140   23.7010 C   0  0  0  0  0  0  0  0  0  0  0  0
   22.9970    9.1110   24.7490 N   0  0  0  0  0  0  0  0  0  0  0  0
   23.0220   12.1410   25.0180 C   0  0  0  0  0  0  0  0  0  0  0  0
   29.1260    9.8230   21.7090 N   0  0  0  0  0  0  0  0  0  0  0  0
   23.4880   10.6920   20.5300 C   0  0  0  0  0  0  0  0  0  0  0  0
   23.2110   10.7890   19.1730 C   0  0  0  0  0  0  0  0  0  0  0  0
   24.2350   10.8650   18.2430 C   0  0  0  0  0  0  0  0  0  0  0  0
   25.5500   10.8410   18.6560 C   0  0  0  0  0  0  0  0  0  0  0  0
   25.8710   10.7460   20.0070 C   0  0  0  0  0  0  0  0  0  0  0  0
   24.8260   10.6610   20.9430 C   0  0  0  0  0  0  0  0  0  0  0  0
   29.8540   10.9130   21.4510 C   0  0  0  0  0  0  0  0  0  0  0  0
   27.8830    9.7800   21.2080 C   0  0  0  0  0  0  0  0  0  0  0  0
   27.3000   10.8010   20.4650 C   0  0  0  0  0  0  0  0  0  0  0  0
   28.0930   11.9190   20.2200 C   0  0  0  0  0  0  0  0  0  0  0  0
   29.3850   11.9780   20.7130 C   0  0  0  0  0  0  0  0  0  0  0  0
    0.0000    0.0000    0.0000 H   0  0  0  0  0  0  0  0  0  0  0  0
    0.0000    0.0000    0.0000 H   0  0  0  0  0  0  0  0  0  0  0  0
    0.0000    0.0000    0.0000 H   0  0  0  0  0  0  0  0  0  0  0  0
    0.0000    0.0000    0.0000 H   0  0  0  0  0  0  0  0  0  0  0  0
    0.0000    0.0000    0.0000 H   0  0  0  0  0  0  0  0  0  0  0  0
    0.0000    0.0000    0.0000 H   0  0  0  0  0  0  0  0  0  0  0  0
    0.0000    0.0000    0.0000 H   0  0  0  0  0  0  0  0  0  0  0  0
    0.0000    0.0000    0.0000 H   0  0  0  0  0  0  0  0  0  0  0  0
    0.0000    0.0000    0.0000 H   0  0  0  0  0  0  0  0  0  0  0  0
    0.0000    0.0000    0.0000 H   0  0  0  0  0  0  0  0  0  0  0  0
    0.0000    0.0000    0.0000 H   0  0  0  0  0  0  0  0  0  0  0  0
    0.0000    0.0000    0.0000 H   0  0  0  0  0  0  0  0  0  0  0  0
    0.0000    0.0000    0.0000 H   0  0  0  0  0  0  0  0  0  0  0  0
   10.8423    5.1777   10.4647 C   0  0  0  0  0  0  0  0  0  0  0  0
    9.5925    5.7148   10.4861 C   0  0  0  0  0  0  0  0  0  0  0  0
    8.6705    5.2293    9.5474 C   0  0  0  0  0  0  0  0  0  0  0  0
    9.0528    4.2431    8.6511 C   0  0  0  0  0  0  0  0  0  0  0  0
    8.1345    3.7541    7.7103 O   0  0  0  0  0  0  0  0  0  0  0  0
    8.5721    2.7537    6.8237 C   0  0  0  0  0  0  0  0  0  0  0  0
    8.5285    3.2867    5.4019 C   0  0  0  0  0  0  0  0  0  0  0  0
    7.7730    1.4780    6.9604 C   0  0  0  0  0  0  0  0  0  0  0  0
   10.3130    3.7770    8.7114 N   0  0  0  0  0  0  0  0  0  0  0  0
   11.2353    4.2148    9.5986 C   0  0  0  0  0  0  0  0  0  0  0  0
    9.2980    6.4758   11.1777 H   0  0  0  0  0  0  0  0  0  0  0  0
    7.6682    5.6310    9.5330 H   0  0  0  0  0  0  0  0  0  0  0  0
    9.6295    2.5161    7.0404 H   0  0  0  0  0  0  0  0  0  0  0  0
    9.4732    3.8590    5.1881 H   0  0  0  0  0  0  0  0  0  0  0  0
    8.5179    2.4488    4.6830 H   0  0  0  0  0  0  0  0  0  0  0  0
    7.7066    4.0087    5.2504 H   0  0  0  0  0  0  0  0  0  0  0  0
    8.3683    0.6703    7.4538 H   0  0  0  0  0  0  0  0  0  0  0  0
    7.4494    1.0843    5.9762 H   0  0  0  0  0  0  0  0  0  0  0  0
    6.8823    1.6723    7.5976 H   0  0  0  0  0  0  0  0  0  0  0  0
   12.2380    3.8141    9.6141 H   0  0  0  0  0  0  0  0  0  0  0  0
  1  3  2  0
  1  4  1  0
  2  4  1  0
  1  5  1  0
  2  6  1  0
  5  6  1  0
  6  7  2  3
  5  8  1  0
  4 10  1  6
 10 11  2  0
 11 12  1  0
 12 13  2  0
 13 14  1  0
 10 15  1  0
 14 15  2  0
  9 16  2  0
  9 17  1  0
 14 18  1  0
 17 18  2  0
 18 19  1  0
 16 20  1  0
 19 20  2  0
  2 21  1  0
  7 22  1  0
  8 23  1  0
  8 24  1  0
  8 25  1  0
 11 26  1  0
 12 27  1  0
 13 28  1  0
 15 29  1  0
 16 30  1  0
 17 31  1  0
 19 32  1  0
 20 33  1  0
 34 35  2  0
 35 36  1  0
 36 37  2  0
 37 38  1  0
 38 39  1  0
 39 40  1  0
 39 41  1  0
 37 42  1  0
 42 43  2  0
 43 34  1  0
 35 44  1  0
 36 45  1  0
 39 46  1  0
 40 47  1  0
 40 48  1  0
 40 49  1  0
 41 50  1  0
 41 51  1  0
 41 52  1  0
 43 53  1  0
  4 34  1  0
M  END
>  <attachment_point>  (447) 
21

>  <score>  (447) 
<NA>

$$$$
4djw
     RDKit          3D

 42 45  0  0  0  0  0  0  0  0999 V2000
   22.4950   11.8750   22.5810 C   0  0  0  0  0  0  0  0  0  0  0  0
   22.5380    9.4930   22.4640 N   0  0  0  0  0  0  0  0  0  0  0  0
   22.3600   13.0630   22.3480 O   0  0  0  0  0  0  0  0  0  0  0  0
   22.3390   10.6680   21.5610 C   0  0  2  0  0  0  0  0  0  0  0  0
   22.7860   11.3350   23.8120 N   0  0  0  0  0  0  0  0  0  0  0  0
   22.7800    9.9140   23.7010 C   0  0  0  0  0  0  0  0  0  0  0  0
   22.9970    9.1110   24.7490 N   0  0  0  0  0  0  0  0  0  0  0  0
   23.0220   12.1410   25.0180 C   0  0  0  0  0  0  0  0  0  0  0  0
   29.1260    9.8230   21.7090 N   0  0  0  0  0  0  0  0  0  0  0  0
   23.4880   10.6920   20.5300 C   0  0  0  0  0  0  0  0  0  0  0  0
   23.2110   10.7890   19.1730 C   0  0  0  0  0  0  0  0  0  0  0  0
   24.2350   10.8650   18.2430 C   0  0  0  0  0  0  0  0  0  0  0  0
   25.5500   10.8410   18.6560 C   0  0  0  0  0  0  0  0  0  0  0  0
   25.8710   10.7460   20.0070 C   0  0  0  0  0  0  0  0  0  0  0  0
   24.8260   10.6610   20.9430 C   0  0  0  0  0  0  0  0  0  0  0  0
   29.8540   10.9130   21.4510 C   0  0  0  0  0  0  0  0  0  0  0  0
   27.8830    9.7800   21.2080 C   0  0  0  0  0  0  0  0  0  0  0  0
   27.3000   10.8010   20.4650 C   0  0  0  0  0  0  0  0  0  0  0  0
   28.0930   11.9190   20.2200 C   0  0  0  0  0  0  0  0  0  0  0  0
   29.3850   11.9780   20.7130 C   0  0  0  0  0  0  0  0  0  0  0  0
    0.0000    0.0000    0.0000 H   0  0  0  0  0  0  0  0  0  0  0  0
    0.0000    0.0000    0.0000 H   0  0  0  0  0  0  0  0  0  0  0  0
    0.0000    0.0000    0.0000 H   0  0  0  0  0  0  0  0  0  0  0  0
    0.0000    0.0000    0.0000 H   0  0  0  0  0  0  0  0  0  0  0  0
    0.0000    0.0000    0.0000 H   0  0  0  0  0  0  0  0  0  0  0  0
    0.0000    0.0000    0.0000 H   0  0  0  0  0  0  0  0  0  0  0  0
    0.0000    0.0000    0.0000 H   0  0  0  0  0  0  0  0  0  0  0  0
    0.0000    0.0000    0.0000 H   0  0  0  0  0  0  0  0  0  0  0  0
    0.0000    0.0000    0.0000 H   0  0  0  0  0  0  0  0  0  0  0  0
    0.0000    0.0000    0.0000 H   0  0  0  0  0  0  0  0  0  0  0  0
    0.0000    0.0000    0.0000 H   0  0  0  0  0  0  0  0  0  0  0  0
    0.0000    0.0000    0.0000 H   0  0  0  0  0  0  0  0  0  0  0  0
    0.0000    0.0000    0.0000 H   0  0  0  0  0  0  0  0  0  0  0  0
   10.8629    5.1876   10.4846 C   0  0  0  0  0  0  0  0  0  0  0  0
    9.9598    4.1926   10.8616 C   0  0  0  0  0  0  0  0  0  0  0  0
    9.0248    3.7452    9.9611 C   0  0  0  0  0  0  0  0  0  0  0  0
    9.0221    4.2936    8.7408 N   0  0  0  0  0  0  0  0  0  0  0  0
    9.8836    5.2417    8.3832 N   0  0  0  0  0  0  0  0  0  0  0  0
   10.8175    5.7179    9.2178 C   0  0  0  0  0  0  0  0  0  0  0  0
   10.0053    3.7821   11.8629 H   0  0  0  0  0  0  0  0  0  0  0  0
    8.3106    2.9893   10.1907 H   0  0  0  0  0  0  0  0  0  0  0  0
   11.4801    6.4837    8.8620 H   0  0  0  0  0  0  0  0  0  0  0  0
  1  3  2  0
  1  4  1  0
  2  4  1  0
  1  5  1  0
  2  6  1  0
  5  6  1  0
  6  7  2  3
  5  8  1  0
  4 10  1  6
 10 11  2  0
 11 12  1  0
 12 13  2  0
 13 14  1  0
 10 15  1  0
 14 15  2  0
  9 16  2  0
  9 17  1  0
 14 18  1  0
 17 18  2  0
 18 19  1  0
 16 20  1  0
 19 20  2  0
  2 21  1  0
  7 22  1  0
  8 23  1  0
  8 24  1  0
  8 25  1  0
 11 26  1  0
 12 27  1  0
 13 28  1  0
 15 29  1  0
 16 30  1  0
 17 31  1  0
 19 32  1  0
 20 33  1  0
 34 35  2  0
 35 36  1  0
 36 37  2  0
 37 38  1  0
 38 39  2  0
 39 34  1  0
 35 40  1  0
 36 41  1  0
 39 42  1  0
  4 34  1  0
M  END
>  <attachment_point>  (448) 
21

>  <score>  (448) 
<NA>

$$$$
4djw
     RDKit          3D

 43 46  0  0  0  0  0  0  0  0999 V2000
   22.4950   11.8750   22.5810 C   0  0  0  0  0  0  0  0  0  0  0  0
   22.5380    9.4930   22.4640 N   0  0  0  0  0  0  0  0  0  0  0  0
   22.3600   13.0630   22.3480 O   0  0  0  0  0  0  0  0  0  0  0  0
   22.3390   10.6680   21.5610 C   0  0  2  0  0  0  0  0  0  0  0  0
   22.7860   11.3350   23.8120 N   0  0  0  0  0  0  0  0  0  0  0  0
   22.7800    9.9140   23.7010 C   0  0  0  0  0  0  0  0  0  0  0  0
   22.9970    9.1110   24.7490 N   0  0  0  0  0  0  0  0  0  0  0  0
   23.0220   12.1410   25.0180 C   0  0  0  0  0  0  0  0  0  0  0  0
   29.1260    9.8230   21.7090 N   0  0  0  0  0  0  0  0  0  0  0  0
   23.4880   10.6920   20.5300 C   0  0  0  0  0  0  0  0  0  0  0  0
   23.2110   10.7890   19.1730 C   0  0  0  0  0  0  0  0  0  0  0  0
   24.2350   10.8650   18.2430 C   0  0  0  0  0  0  0  0  0  0  0  0
   25.5500   10.8410   18.6560 C   0  0  0  0  0  0  0  0  0  0  0  0
   25.8710   10.7460   20.0070 C   0  0  0  0  0  0  0  0  0  0  0  0
   24.8260   10.6610   20.9430 C   0  0  0  0  0  0  0  0  0  0  0  0
   29.8540   10.9130   21.4510 C   0  0  0  0  0  0  0  0  0  0  0  0
   27.8830    9.7800   21.2080 C   0  0  0  0  0  0  0  0  0  0  0  0
   27.3000   10.8010   20.4650 C   0  0  0  0  0  0  0  0  0  0  0  0
   28.0930   11.9190   20.2200 C   0  0  0  0  0  0  0  0  0  0  0  0
   29.3850   11.9780   20.7130 C   0  0  0  0  0  0  0  0  0  0  0  0
    0.0000    0.0000    0.0000 H   0  0  0  0  0  0  0  0  0  0  0  0
    0.0000    0.0000    0.0000 H   0  0  0  0  0  0  0  0  0  0  0  0
    0.0000    0.0000    0.0000 H   0  0  0  0  0  0  0  0  0  0  0  0
    0.0000    0.0000    0.0000 H   0  0  0  0  0  0  0  0  0  0  0  0
    0.0000    0.0000    0.0000 H   0  0  0  0  0  0  0  0  0  0  0  0
    0.0000    0.0000    0.0000 H   0  0  0  0  0  0  0  0  0  0  0  0
    0.0000    0.0000    0.0000 H   0  0  0  0  0  0  0  0  0  0  0  0
    0.0000    0.0000    0.0000 H   0  0  0  0  0  0  0  0  0  0  0  0
    0.0000    0.0000    0.0000 H   0  0  0  0  0  0  0  0  0  0  0  0
    0.0000    0.0000    0.0000 H   0  0  0  0  0  0  0  0  0  0  0  0
    0.0000    0.0000    0.0000 H   0  0  0  0  0  0  0  0  0  0  0  0
    0.0000    0.0000    0.0000 H   0  0  0  0  0  0  0  0  0  0  0  0
    0.0000    0.0000    0.0000 H   0  0  0  0  0  0  0  0  0  0  0  0
   10.8719    5.1919   10.4933 C   0  0  0  0  0  0  0  0  0  0  0  0
   10.1385    6.1430    9.8128 C   0  0  0  0  0  0  0  0  0  0  0  0
    9.2093    5.6571    8.9151 C   0  0  0  0  0  0  0  0  0  0  0  0
    9.0535    4.2849    8.7378 C   0  0  0  0  0  0  0  0  0  0  0  0
    8.1378    3.8054    7.8533 F   0  0  0  0  0  0  0  0  0  0  0  0
    9.8041    3.3601    9.4353 C   0  0  0  0  0  0  0  0  0  0  0  0
   10.7011    3.8691   10.3026 N   0  0  0  0  0  0  0  0  0  0  0  0
   10.2913    7.2008    9.9807 H   0  0  0  0  0  0  0  0  0  0  0  0
    8.6108    6.3806    8.3588 H   0  0  0  0  0  0  0  0  0  0  0  0
    9.6862    2.2926    9.3005 H   0  0  0  0  0  0  0  0  0  0  0  0
  1  3  2  0
  1  4  1  0
  2  4  1  0
  1  5  1  0
  2  6  1  0
  5  6  1  0
  6  7  2  3
  5  8  1  0
  4 10  1  6
 10 11  2  0
 11 12  1  0
 12 13  2  0
 13 14  1  0
 10 15  1  0
 14 15  2  0
  9 16  2  0
  9 17  1  0
 14 18  1  0
 17 18  2  0
 18 19  1  0
 16 20  1  0
 19 20  2  0
  2 21  1  0
  7 22  1  0
  8 23  1  0
  8 24  1  0
  8 25  1  0
 11 26  1  0
 12 27  1  0
 13 28  1  0
 15 29  1  0
 16 30  1  0
 17 31  1  0
 19 32  1  0
 20 33  1  0
 34 35  2  0
 35 36  1  0
 36 37  2  0
 37 38  1  0
 37 39  1  0
 39 40  2  0
 40 34  1  0
 35 41  1  0
 36 42  1  0
 39 43  1  0
  4 34  1  0
M  END
>  <attachment_point>  (449) 
21

>  <score>  (449) 
<NA>

$$$$
4djw
     RDKit          3D

 49 53  0  0  0  0  0  0  0  0999 V2000
   22.4950   11.8750   22.5810 C   0  0  0  0  0  0  0  0  0  0  0  0
   22.5380    9.4930   22.4640 N   0  0  0  0  0  0  0  0  0  0  0  0
   22.3600   13.0630   22.3480 O   0  0  0  0  0  0  0  0  0  0  0  0
   22.3390   10.6680   21.5610 C   0  0  2  0  0  0  0  0  0  0  0  0
   22.7860   11.3350   23.8120 N   0  0  0  0  0  0  0  0  0  0  0  0
   22.7800    9.9140   23.7010 C   0  0  0  0  0  0  0  0  0  0  0  0
   22.9970    9.1110   24.7490 N   0  0  0  0  0  0  0  0  0  0  0  0
   23.0220   12.1410   25.0180 C   0  0  0  0  0  0  0  0  0  0  0  0
   29.1260    9.8230   21.7090 N   0  0  0  0  0  0  0  0  0  0  0  0
   23.4880   10.6920   20.5300 C   0  0  0  0  0  0  0  0  0  0  0  0
   23.2110   10.7890   19.1730 C   0  0  0  0  0  0  0  0  0  0  0  0
   24.2350   10.8650   18.2430 C   0  0  0  0  0  0  0  0  0  0  0  0
   25.5500   10.8410   18.6560 C   0  0  0  0  0  0  0  0  0  0  0  0
   25.8710   10.7460   20.0070 C   0  0  0  0  0  0  0  0  0  0  0  0
   24.8260   10.6610   20.9430 C   0  0  0  0  0  0  0  0  0  0  0  0
   29.8540   10.9130   21.4510 C   0  0  0  0  0  0  0  0  0  0  0  0
   27.8830    9.7800   21.2080 C   0  0  0  0  0  0  0  0  0  0  0  0
   27.3000   10.8010   20.4650 C   0  0  0  0  0  0  0  0  0  0  0  0
   28.0930   11.9190   20.2200 C   0  0  0  0  0  0  0  0  0  0  0  0
   29.3850   11.9780   20.7130 C   0  0  0  0  0  0  0  0  0  0  0  0
    0.0000    0.0000    0.0000 H   0  0  0  0  0  0  0  0  0  0  0  0
    0.0000    0.0000    0.0000 H   0  0  0  0  0  0  0  0  0  0  0  0
    0.0000    0.0000    0.0000 H   0  0  0  0  0  0  0  0  0  0  0  0
    0.0000    0.0000    0.0000 H   0  0  0  0  0  0  0  0  0  0  0  0
    0.0000    0.0000    0.0000 H   0  0  0  0  0  0  0  0  0  0  0  0
    0.0000    0.0000    0.0000 H   0  0  0  0  0  0  0  0  0  0  0  0
    0.0000    0.0000    0.0000 H   0  0  0  0  0  0  0  0  0  0  0  0
    0.0000    0.0000    0.0000 H   0  0  0  0  0  0  0  0  0  0  0  0
    0.0000    0.0000    0.0000 H   0  0  0  0  0  0  0  0  0  0  0  0
    0.0000    0.0000    0.0000 H   0  0  0  0  0  0  0  0  0  0  0  0
    0.0000    0.0000    0.0000 H   0  0  0  0  0  0  0  0  0  0  0  0
    0.0000    0.0000    0.0000 H   0  0  0  0  0  0  0  0  0  0  0  0
    0.0000    0.0000    0.0000 H   0  0  0  0  0  0  0  0  0  0  0  0
   10.8398    5.1766   10.4623 C   0  0  0  0  0  0  0  0  0  0  0  0
   10.8956    5.7595    9.2364 C   0  0  0  0  0  0  0  0  0  0  0  0
    9.9908    5.3445    8.3239 N   0  0  0  0  0  0  0  0  0  0  0  0
    9.0679    4.3969    8.6001 C   0  0  0  0  0  0  0  0  0  0  0  0
    9.0439    3.8285    9.8580 C   0  0  0  0  0  0  0  0  0  0  0  0
    8.1268    2.8591   10.1959 C   0  0  0  0  0  0  0  0  0  0  0  0
    8.1317    2.3145   11.4590 C   0  0  0  0  0  0  0  0  0  0  0  0
    9.0233    2.6864   12.4432 C   0  0  0  0  0  0  0  0  0  0  0  0
    9.9463    3.6566   12.1156 C   0  0  0  0  0  0  0  0  0  0  0  0
    9.9572    4.2149   10.8537 C   0  0  0  0  0  0  0  0  0  0  0  0
   11.6429    6.5251    9.0170 H   0  0  0  0  0  0  0  0  0  0  0  0
    8.3630    4.1030    7.8216 H   0  0  0  0  0  0  0  0  0  0  0  0
    7.4119    2.5510    9.4294 H   0  0  0  0  0  0  0  0  0  0  0  0
    7.3858    1.5446   11.6911 H   0  0  0  0  0  0  0  0  0  0  0  0
    8.9855    2.2244   13.4281 H   0  0  0  0  0  0  0  0  0  0  0  0
   10.6643    3.9752   12.8642 H   0  0  0  0  0  0  0  0  0  0  0  0
  1  3  2  0
  1  4  1  0
  2  4  1  0
  1  5  1  0
  2  6  1  0
  5  6  1  0
  6  7  2  3
  5  8  1  0
  4 10  1  6
 10 11  2  0
 11 12  1  0
 12 13  2  0
 13 14  1  0
 10 15  1  0
 14 15  2  0
  9 16  2  0
  9 17  1  0
 14 18  1  0
 17 18  2  0
 18 19  1  0
 16 20  1  0
 19 20  2  0
  2 21  1  0
  7 22  1  0
  8 23  1  0
  8 24  1  0
  8 25  1  0
 11 26  1  0
 12 27  1  0
 13 28  1  0
 15 29  1  0
 16 30  1  0
 17 31  1  0
 19 32  1  0
 20 33  1  0
 34 35  2  0
 35 36  1  0
 36 37  2  0
 37 38  1  0
 38 39  2  0
 39 40  1  0
 40 41  2  0
 41 42  1  0
 42 43  2  0
 43 34  1  0
 43 38  1  0
 35 44  1  0
 37 45  1  0
 39 46  1  0
 40 47  1  0
 41 48  1  0
 42 49  1  0
  4 34  1  0
M  END
>  <attachment_point>  (450) 
21

>  <score>  (450) 
<NA>

$$$$
4djw
     RDKit          3D

 46 49  0  0  0  0  0  0  0  0999 V2000
   22.4950   11.8750   22.5810 C   0  0  0  0  0  0  0  0  0  0  0  0
   22.5380    9.4930   22.4640 N   0  0  0  0  0  0  0  0  0  0  0  0
   22.3600   13.0630   22.3480 O   0  0  0  0  0  0  0  0  0  0  0  0
   22.3390   10.6680   21.5610 C   0  0  2  0  0  0  0  0  0  0  0  0
   22.7860   11.3350   23.8120 N   0  0  0  0  0  0  0  0  0  0  0  0
   22.7800    9.9140   23.7010 C   0  0  0  0  0  0  0  0  0  0  0  0
   22.9970    9.1110   24.7490 N   0  0  0  0  0  0  0  0  0  0  0  0
   23.0220   12.1410   25.0180 C   0  0  0  0  0  0  0  0  0  0  0  0
   29.1260    9.8230   21.7090 N   0  0  0  0  0  0  0  0  0  0  0  0
   23.4880   10.6920   20.5300 C   0  0  0  0  0  0  0  0  0  0  0  0
   23.2110   10.7890   19.1730 C   0  0  0  0  0  0  0  0  0  0  0  0
   24.2350   10.8650   18.2430 C   0  0  0  0  0  0  0  0  0  0  0  0
   25.5500   10.8410   18.6560 C   0  0  0  0  0  0  0  0  0  0  0  0
   25.8710   10.7460   20.0070 C   0  0  0  0  0  0  0  0  0  0  0  0
   24.8260   10.6610   20.9430 C   0  0  0  0  0  0  0  0  0  0  0  0
   29.8540   10.9130   21.4510 C   0  0  0  0  0  0  0  0  0  0  0  0
   27.8830    9.7800   21.2080 C   0  0  0  0  0  0  0  0  0  0  0  0
   27.3000   10.8010   20.4650 C   0  0  0  0  0  0  0  0  0  0  0  0
   28.0930   11.9190   20.2200 C   0  0  0  0  0  0  0  0  0  0  0  0
   29.3850   11.9780   20.7130 C   0  0  0  0  0  0  0  0  0  0  0  0
    0.0000    0.0000    0.0000 H   0  0  0  0  0  0  0  0  0  0  0  0
    0.0000    0.0000    0.0000 H   0  0  0  0  0  0  0  0  0  0  0  0
    0.0000    0.0000    0.0000 H   0  0  0  0  0  0  0  0  0  0  0  0
    0.0000    0.0000    0.0000 H   0  0  0  0  0  0  0  0  0  0  0  0
    0.0000    0.0000    0.0000 H   0  0  0  0  0  0  0  0  0  0  0  0
    0.0000    0.0000    0.0000 H   0  0  0  0  0  0  0  0  0  0  0  0
    0.0000    0.0000    0.0000 H   0  0  0  0  0  0  0  0  0  0  0  0
    0.0000    0.0000    0.0000 H   0  0  0  0  0  0  0  0  0  0  0  0
    0.0000    0.0000    0.0000 H   0  0  0  0  0  0  0  0  0  0  0  0
    0.0000    0.0000    0.0000 H   0  0  0  0  0  0  0  0  0  0  0  0
    0.0000    0.0000    0.0000 H   0  0  0  0  0  0  0  0  0  0  0  0
    0.0000    0.0000    0.0000 H   0  0  0  0  0  0  0  0  0  0  0  0
    0.0000    0.0000    0.0000 H   0  0  0  0  0  0  0  0  0  0  0  0
   10.8888    5.2000   10.5096 N   0  0  0  0  0  0  0  0  0  0  0  0
    9.5136    5.5828   10.7048 C   0  0  0  0  0  0  0  0  0  0  0  0
    8.6138    4.7739   11.3552 C   0  0  0  0  0  0  0  0  0  0  0  0
    7.2931    5.1916   11.5322 C   0  0  0  0  0  0  0  0  0  0  0  0
    6.8663    6.4147   11.0604 C   0  0  0  0  0  0  0  0  0  0  0  0
    5.2220    6.9602   11.2798 Cl  0  0  0  0  0  0  0  0  0  0  0  0
    7.7705    7.2359   10.4013 C   0  0  0  0  0  0  0  0  0  0  0  0
    9.0698    6.8045   10.2386 C   0  0  0  0  0  0  0  0  0  0  0  0
   11.2415    4.6123    9.7509 H   0  0  0  0  0  0  0  0  0  0  0  0
    8.8977    3.8018   11.7372 H   0  0  0  0  0  0  0  0  0  0  0  0
    6.5645    4.5843   12.0301 H   0  0  0  0  0  0  0  0  0  0  0  0
    7.4796    8.2179   10.0046 H   0  0  0  0  0  0  0  0  0  0  0  0
    9.7519    7.4447    9.7291 H   0  0  0  0  0  0  0  0  0  0  0  0
  1  3  2  0
  1  4  1  0
  2  4  1  0
  1  5  1  0
  2  6  1  0
  5  6  1  0
  6  7  2  3
  5  8  1  0
  4 10  1  0
 10 11  2  0
 11 12  1  0
 12 13  2  0
 13 14  1  0
 10 15  1  0
 14 15  2  0
  9 16  2  0
  9 17  1  0
 14 18  1  0
 17 18  2  0
 18 19  1  0
 16 20  1  0
 19 20  2  0
  2 21  1  0
  7 22  1  0
  8 23  1  0
  8 24  1  0
  8 25  1  0
 11 26  1  0
 12 27  1  0
 13 28  1  0
 15 29  1  0
 16 30  1  0
 17 31  1  0
 19 32  1  0
 20 33  1  0
 34 35  1  0
 35 36  2  0
 36 37  1  0
 37 38  2  0
 38 39  1  0
 38 40  1  0
 40 41  2  0
 41 35  1  0
 34 42  1  0
 36 43  1  0
 37 44  1  0
 40 45  1  0
 41 46  1  0
  4 34  1  6
M  END
>  <attachment_point>  (451) 
21

>  <score>  (451) 
<NA>

$$$$
4djw
     RDKit          3D

 45 48  0  0  0  0  0  0  0  0999 V2000
   22.4950   11.8750   22.5810 C   0  0  0  0  0  0  0  0  0  0  0  0
   22.5380    9.4930   22.4640 N   0  0  0  0  0  0  0  0  0  0  0  0
   22.3600   13.0630   22.3480 O   0  0  0  0  0  0  0  0  0  0  0  0
   22.3390   10.6680   21.5610 C   0  0  2  0  0  0  0  0  0  0  0  0
   22.7860   11.3350   23.8120 N   0  0  0  0  0  0  0  0  0  0  0  0
   22.7800    9.9140   23.7010 C   0  0  0  0  0  0  0  0  0  0  0  0
   22.9970    9.1110   24.7490 N   0  0  0  0  0  0  0  0  0  0  0  0
   23.0220   12.1410   25.0180 C   0  0  0  0  0  0  0  0  0  0  0  0
   29.1260    9.8230   21.7090 N   0  0  0  0  0  0  0  0  0  0  0  0
   23.4880   10.6920   20.5300 C   0  0  0  0  0  0  0  0  0  0  0  0
   23.2110   10.7890   19.1730 C   0  0  0  0  0  0  0  0  0  0  0  0
   24.2350   10.8650   18.2430 C   0  0  0  0  0  0  0  0  0  0  0  0
   25.5500   10.8410   18.6560 C   0  0  0  0  0  0  0  0  0  0  0  0
   25.8710   10.7460   20.0070 C   0  0  0  0  0  0  0  0  0  0  0  0
   24.8260   10.6610   20.9430 C   0  0  0  0  0  0  0  0  0  0  0  0
   29.8540   10.9130   21.4510 C   0  0  0  0  0  0  0  0  0  0  0  0
   27.8830    9.7800   21.2080 C   0  0  0  0  0  0  0  0  0  0  0  0
   27.3000   10.8010   20.4650 C   0  0  0  0  0  0  0  0  0  0  0  0
   28.0930   11.9190   20.2200 C   0  0  0  0  0  0  0  0  0  0  0  0
   29.3850   11.9780   20.7130 C   0  0  0  0  0  0  0  0  0  0  0  0
    0.0000    0.0000    0.0000 H   0  0  0  0  0  0  0  0  0  0  0  0
    0.0000    0.0000    0.0000 H   0  0  0  0  0  0  0  0  0  0  0  0
    0.0000    0.0000    0.0000 H   0  0  0  0  0  0  0  0  0  0  0  0
    0.0000    0.0000    0.0000 H   0  0  0  0  0  0  0  0  0  0  0  0
    0.0000    0.0000    0.0000 H   0  0  0  0  0  0  0  0  0  0  0  0
    0.0000    0.0000    0.0000 H   0  0  0  0  0  0  0  0  0  0  0  0
    0.0000    0.0000    0.0000 H   0  0  0  0  0  0  0  0  0  0  0  0
    0.0000    0.0000    0.0000 H   0  0  0  0  0  0  0  0  0  0  0  0
    0.0000    0.0000    0.0000 H   0  0  0  0  0  0  0  0  0  0  0  0
    0.0000    0.0000    0.0000 H   0  0  0  0  0  0  0  0  0  0  0  0
    0.0000    0.0000    0.0000 H   0  0  0  0  0  0  0  0  0  0  0  0
    0.0000    0.0000    0.0000 H   0  0  0  0  0  0  0  0  0  0  0  0
    0.0000    0.0000    0.0000 H   0  0  0  0  0  0  0  0  0  0  0  0
   10.8778    5.1947   10.4990 N   0  0  0  0  0  0  0  0  0  0  0  0
   11.2383    4.4465    9.3159 C   0  0  0  0  0  0  0  0  0  0  0  0
    9.9224    3.6946    9.0670 C   0  0  0  0  0  0  0  0  0  0  0  0
    8.9525    4.8397    9.2974 C   0  0  0  0  0  0  0  0  0  0  0  0
    9.4762    5.3814   10.5701 C   0  0  0  0  0  0  0  0  0  0  0  0
    8.8523    5.8968   11.5202 O   0  0  0  0  0  0  0  0  0  0  0  0
   12.0759    3.7708    9.4582 H   0  0  0  0  0  0  0  0  0  0  0  0
   11.3509    5.1083    8.4179 H   0  0  0  0  0  0  0  0  0  0  0  0
    9.8724    3.2959    8.0521 H   0  0  0  0  0  0  0  0  0  0  0  0
    9.7572    2.9457    9.8580 H   0  0  0  0  0  0  0  0  0  0  0  0
    7.9047    4.5048    9.3691 H   0  0  0  0  0  0  0  0  0  0  0  0
    9.0691    5.5752    8.4598 H   0  0  0  0  0  0  0  0  0  0  0  0
  1  3  2  0
  1  4  1  0
  2  4  1  0
  1  5  1  0
  2  6  1  0
  5  6  1  0
  6  7  2  3
  5  8  1  0
  4 10  1  0
 10 11  2  0
 11 12  1  0
 12 13  2  0
 13 14  1  0
 10 15  1  0
 14 15  2  0
  9 16  2  0
  9 17  1  0
 14 18  1  0
 17 18  2  0
 18 19  1  0
 16 20  1  0
 19 20  2  0
  2 21  1  0
  7 22  1  0
  8 23  1  0
  8 24  1  0
  8 25  1  0
 11 26  1  0
 12 27  1  0
 13 28  1  0
 15 29  1  0
 16 30  1  0
 17 31  1  0
 19 32  1  0
 20 33  1  0
 34 35  1  0
 35 36  1  0
 36 37  1  0
 37 38  1  0
 38 39  2  0
 38 34  1  0
 35 40  1  0
 35 41  1  0
 36 42  1  0
 36 43  1  0
 37 44  1  0
 37 45  1  0
  4 34  1  6
M  END
>  <attachment_point>  (452) 
21

>  <score>  (452) 
<NA>

$$$$
4djw
     RDKit          3D

 55 59  0  0  0  0  0  0  0  0999 V2000
   22.4950   11.8750   22.5810 C   0  0  0  0  0  0  0  0  0  0  0  0
   22.5380    9.4930   22.4640 N   0  0  0  0  0  0  0  0  0  0  0  0
   22.3600   13.0630   22.3480 O   0  0  0  0  0  0  0  0  0  0  0  0
   22.3390   10.6680   21.5610 C   0  0  2  0  0  0  0  0  0  0  0  0
   22.7860   11.3350   23.8120 N   0  0  0  0  0  0  0  0  0  0  0  0
   22.7800    9.9140   23.7010 C   0  0  0  0  0  0  0  0  0  0  0  0
   22.9970    9.1110   24.7490 N   0  0  0  0  0  0  0  0  0  0  0  0
   23.0220   12.1410   25.0180 C   0  0  0  0  0  0  0  0  0  0  0  0
   29.1260    9.8230   21.7090 N   0  0  0  0  0  0  0  0  0  0  0  0
   23.4880   10.6920   20.5300 C   0  0  0  0  0  0  0  0  0  0  0  0
   23.2110   10.7890   19.1730 C   0  0  0  0  0  0  0  0  0  0  0  0
   24.2350   10.8650   18.2430 C   0  0  0  0  0  0  0  0  0  0  0  0
   25.5500   10.8410   18.6560 C   0  0  0  0  0  0  0  0  0  0  0  0
   25.8710   10.7460   20.0070 C   0  0  0  0  0  0  0  0  0  0  0  0
   24.8260   10.6610   20.9430 C   0  0  0  0  0  0  0  0  0  0  0  0
   29.8540   10.9130   21.4510 C   0  0  0  0  0  0  0  0  0  0  0  0
   27.8830    9.7800   21.2080 C   0  0  0  0  0  0  0  0  0  0  0  0
   27.3000   10.8010   20.4650 C   0  0  0  0  0  0  0  0  0  0  0  0
   28.0930   11.9190   20.2200 C   0  0  0  0  0  0  0  0  0  0  0  0
   29.3850   11.9780   20.7130 C   0  0  0  0  0  0  0  0  0  0  0  0
    0.0000    0.0000    0.0000 H   0  0  0  0  0  0  0  0  0  0  0  0
    0.0000    0.0000    0.0000 H   0  0  0  0  0  0  0  0  0  0  0  0
    0.0000    0.0000    0.0000 H   0  0  0  0  0  0  0  0  0  0  0  0
    0.0000    0.0000    0.0000 H   0  0  0  0  0  0  0  0  0  0  0  0
    0.0000    0.0000    0.0000 H   0  0  0  0  0  0  0  0  0  0  0  0
    0.0000    0.0000    0.0000 H   0  0  0  0  0  0  0  0  0  0  0  0
    0.0000    0.0000    0.0000 H   0  0  0  0  0  0  0  0  0  0  0  0
    0.0000    0.0000    0.0000 H   0  0  0  0  0  0  0  0  0  0  0  0
    0.0000    0.0000    0.0000 H   0  0  0  0  0  0  0  0  0  0  0  0
    0.0000    0.0000    0.0000 H   0  0  0  0  0  0  0  0  0  0  0  0
    0.0000    0.0000    0.0000 H   0  0  0  0  0  0  0  0  0  0  0  0
    0.0000    0.0000    0.0000 H   0  0  0  0  0  0  0  0  0  0  0  0
    0.0000    0.0000    0.0000 H   0  0  0  0  0  0  0  0  0  0  0  0
   10.8912    5.2011   10.5119 N   0  0  0  0  0  0  0  0  0  0  0  0
    9.5520    5.4239   11.0707 C   0  0  0  0  0  0  0  0  0  0  0  0
    9.5777    4.5302   12.2965 C   0  0  0  0  0  0  0  0  0  0  0  0
   10.5728    3.4548   11.9694 C   0  0  2  0  0  0  0  0  0  0  0  0
   11.9165    3.6628   12.5989 C   0  0  0  0  0  0  0  0  0  0  0  0
   12.9041    3.2857   11.6121 N   0  0  0  0  0  0  0  0  0  0  0  0
   13.6679    2.1347   12.0058 C   0  0  0  0  0  0  0  0  0  0  0  0
   12.2525    3.1661   10.3508 C   0  0  0  0  0  0  0  0  0  0  0  0
   10.8950    3.7349   10.5009 C   0  0  2  0  0  0  0  0  0  0  0  0
    9.3494    6.4663   11.2885 H   0  0  0  0  0  0  0  0  0  0  0  0
    8.8435    4.9734   10.3385 H   0  0  0  0  0  0  0  0  0  0  0  0
    8.5782    4.0285   12.3770 H   0  0  0  0  0  0  0  0  0  0  0  0
    9.7812    5.0740   13.2221 H   0  0  0  0  0  0  0  0  0  0  0  0
   10.1735    2.4498   12.1092 H   0  0  0  0  0  0  0  0  0  0  0  0
   11.9617    3.0316   13.5121 H   0  0  0  0  0  0  0  0  0  0  0  0
   12.1107    4.7089   12.8842 H   0  0  0  0  0  0  0  0  0  0  0  0
   13.6218    1.9402   13.1004 H   0  0  0  0  0  0  0  0  0  0  0  0
   14.7449    2.3104   11.7518 H   0  0  0  0  0  0  0  0  0  0  0  0
   13.3871    1.2187   11.4262 H   0  0  0  0  0  0  0  0  0  0  0  0
   12.8881    3.7174    9.5976 H   0  0  0  0  0  0  0  0  0  0  0  0
   12.1782    2.1067   10.0593 H   0  0  0  0  0  0  0  0  0  0  0  0
   10.1322    3.3773    9.8232 H   0  0  0  0  0  0  0  0  0  0  0  0
  1  3  2  0
  1  4  1  0
  2  4  1  0
  1  5  1  0
  2  6  1  0
  5  6  1  0
  6  7  2  3
  5  8  1  0
  4 10  1  0
 10 11  2  0
 11 12  1  0
 12 13  2  0
 13 14  1  0
 10 15  1  0
 14 15  2  0
  9 16  2  0
  9 17  1  0
 14 18  1  0
 17 18  2  0
 18 19  1  0
 16 20  1  0
 19 20  2  0
  2 21  1  0
  7 22  1  0
  8 23  1  0
  8 24  1  0
  8 25  1  0
 11 26  1  0
 12 27  1  0
 13 28  1  0
 15 29  1  0
 16 30  1  0
 17 31  1  0
 19 32  1  0
 20 33  1  0
 34 35  1  0
 35 36  1  0
 36 37  1  0
 37 38  1  0
 38 39  1  0
 39 40  1  0
 39 41  1  0
 41 42  1  0
 42 34  1  0
 42 37  1  0
 35 43  1  0
 35 44  1  0
 36 45  1  0
 36 46  1  0
 37 47  1  6
 38 48  1  0
 38 49  1  0
 40 50  1  0
 40 51  1  0
 40 52  1  0
 41 53  1  0
 41 54  1  0
 42 55  1  6
  4 34  1  6
M  END
>  <attachment_point>  (453) 
21

>  <score>  (453) 
<NA>

$$$$
4djw
     RDKit          3D

 52 55  0  0  0  0  0  0  0  0999 V2000
   22.4950   11.8750   22.5810 C   0  0  0  0  0  0  0  0  0  0  0  0
   22.5380    9.4930   22.4640 N   0  0  0  0  0  0  0  0  0  0  0  0
   22.3600   13.0630   22.3480 O   0  0  0  0  0  0  0  0  0  0  0  0
   22.3390   10.6680   21.5610 C   0  0  2  0  0  0  0  0  0  0  0  0
   22.7860   11.3350   23.8120 N   0  0  0  0  0  0  0  0  0  0  0  0
   22.7800    9.9140   23.7010 C   0  0  0  0  0  0  0  0  0  0  0  0
   22.9970    9.1110   24.7490 N   0  0  0  0  0  0  0  0  0  0  0  0
   23.0220   12.1410   25.0180 C   0  0  0  0  0  0  0  0  0  0  0  0
   29.1260    9.8230   21.7090 N   0  0  0  0  0  0  0  0  0  0  0  0
   23.4880   10.6920   20.5300 C   0  0  0  0  0  0  0  0  0  0  0  0
   23.2110   10.7890   19.1730 C   0  0  0  0  0  0  0  0  0  0  0  0
   24.2350   10.8650   18.2430 C   0  0  0  0  0  0  0  0  0  0  0  0
   25.5500   10.8410   18.6560 C   0  0  0  0  0  0  0  0  0  0  0  0
   25.8710   10.7460   20.0070 C   0  0  0  0  0  0  0  0  0  0  0  0
   24.8260   10.6610   20.9430 C   0  0  0  0  0  0  0  0  0  0  0  0
   29.8540   10.9130   21.4510 C   0  0  0  0  0  0  0  0  0  0  0  0
   27.8830    9.7800   21.2080 C   0  0  0  0  0  0  0  0  0  0  0  0
   27.3000   10.8010   20.4650 C   0  0  0  0  0  0  0  0  0  0  0  0
   28.0930   11.9190   20.2200 C   0  0  0  0  0  0  0  0  0  0  0  0
   29.3850   11.9780   20.7130 C   0  0  0  0  0  0  0  0  0  0  0  0
    0.0000    0.0000    0.0000 H   0  0  0  0  0  0  0  0  0  0  0  0
    0.0000    0.0000    0.0000 H   0  0  0  0  0  0  0  0  0  0  0  0
    0.0000    0.0000    0.0000 H   0  0  0  0  0  0  0  0  0  0  0  0
    0.0000    0.0000    0.0000 H   0  0  0  0  0  0  0  0  0  0  0  0
    0.0000    0.0000    0.0000 H   0  0  0  0  0  0  0  0  0  0  0  0
    0.0000    0.0000    0.0000 H   0  0  0  0  0  0  0  0  0  0  0  0
    0.0000    0.0000    0.0000 H   0  0  0  0  0  0  0  0  0  0  0  0
    0.0000    0.0000    0.0000 H   0  0  0  0  0  0  0  0  0  0  0  0
    0.0000    0.0000    0.0000 H   0  0  0  0  0  0  0  0  0  0  0  0
    0.0000    0.0000    0.0000 H   0  0  0  0  0  0  0  0  0  0  0  0
    0.0000    0.0000    0.0000 H   0  0  0  0  0  0  0  0  0  0  0  0
    0.0000    0.0000    0.0000 H   0  0  0  0  0  0  0  0  0  0  0  0
    0.0000    0.0000    0.0000 H   0  0  0  0  0  0  0  0  0  0  0  0
   10.8524    5.1826   10.4744 N   0  0  0  0  0  0  0  0  0  0  0  0
    9.5265    5.0762   10.8817 C   0  0  0  0  0  0  0  0  0  0  0  0
    9.1816    5.3858   12.0673 O   0  0  0  0  0  0  0  0  0  0  0  0
    8.5329    4.6030    9.9271 C   0  0  0  0  0  0  0  0  0  0  0  0
    7.2130    4.5047   10.3568 C   0  0  0  0  0  0  0  0  0  0  0  0
    6.2679    4.0591    9.4633 C   0  0  0  0  0  0  0  0  0  0  0  0
    6.5917    3.7106    8.1650 C   0  0  0  0  0  0  0  0  0  0  0  0
    5.6073    3.2591    7.2746 O   0  0  0  0  0  0  0  0  0  0  0  0
    4.2652    3.1415    7.6552 C   0  0  0  0  0  0  0  0  0  0  0  0
    7.9072    3.8185    7.7683 C   0  0  0  0  0  0  0  0  0  0  0  0
    8.8719    4.2645    8.6522 C   0  0  0  0  0  0  0  0  0  0  0  0
   11.2705    4.9761    9.5778 H   0  0  0  0  0  0  0  0  0  0  0  0
    6.9372    4.7699   11.3615 H   0  0  0  0  0  0  0  0  0  0  0  0
    5.2371    3.9743    9.7729 H   0  0  0  0  0  0  0  0  0  0  0  0
    4.2078    2.6157    8.6534 H   0  0  0  0  0  0  0  0  0  0  0  0
    3.7726    4.1335    7.7583 H   0  0  0  0  0  0  0  0  0  0  0  0
    3.7167    2.4760    6.9579 H   0  0  0  0  0  0  0  0  0  0  0  0
    8.1844    3.5467    6.7416 H   0  0  0  0  0  0  0  0  0  0  0  0
    9.8772    4.3224    8.2704 H   0  0  0  0  0  0  0  0  0  0  0  0
  1  3  2  0
  1  4  1  0
  2  4  1  0
  1  5  1  0
  2  6  1  0
  5  6  1  0
  6  7  2  3
  5  8  1  0
  4 10  1  0
 10 11  2  0
 11 12  1  0
 12 13  2  0
 13 14  1  0
 10 15  1  0
 14 15  2  0
  9 16  2  0
  9 17  1  0
 14 18  1  0
 17 18  2  0
 18 19  1  0
 16 20  1  0
 19 20  2  0
  2 21  1  0
  7 22  1  0
  8 23  1  0
  8 24  1  0
  8 25  1  0
 11 26  1  0
 12 27  1  0
 13 28  1  0
 15 29  1  0
 16 30  1  0
 17 31  1  0
 19 32  1  0
 20 33  1  0
 34 35  1  0
 35 36  2  0
 35 37  1  0
 37 38  2  0
 38 39  1  0
 39 40  2  0
 40 41  1  0
 41 42  1  0
 40 43  1  0
 43 44  2  0
 44 37  1  0
 34 45  1  0
 38 46  1  0
 39 47  1  0
 42 48  1  0
 42 49  1  0
 42 50  1  0
 43 51  1  0
 44 52  1  0
  4 34  1  6
M  END
>  <attachment_point>  (454) 
21

>  <score>  (454) 
<NA>

$$$$
4djw
     RDKit          3D

 46 49  0  0  0  0  0  0  0  0999 V2000
   22.4950   11.8750   22.5810 C   0  0  0  0  0  0  0  0  0  0  0  0
   22.5380    9.4930   22.4640 N   0  0  0  0  0  0  0  0  0  0  0  0
   22.3600   13.0630   22.3480 O   0  0  0  0  0  0  0  0  0  0  0  0
   22.3390   10.6680   21.5610 C   0  0  2  0  0  0  0  0  0  0  0  0
   22.7860   11.3350   23.8120 N   0  0  0  0  0  0  0  0  0  0  0  0
   22.7800    9.9140   23.7010 C   0  0  0  0  0  0  0  0  0  0  0  0
   22.9970    9.1110   24.7490 N   0  0  0  0  0  0  0  0  0  0  0  0
   23.0220   12.1410   25.0180 C   0  0  0  0  0  0  0  0  0  0  0  0
   29.1260    9.8230   21.7090 N   0  0  0  0  0  0  0  0  0  0  0  0
   23.4880   10.6920   20.5300 C   0  0  0  0  0  0  0  0  0  0  0  0
   23.2110   10.7890   19.1730 C   0  0  0  0  0  0  0  0  0  0  0  0
   24.2350   10.8650   18.2430 C   0  0  0  0  0  0  0  0  0  0  0  0
   25.5500   10.8410   18.6560 C   0  0  0  0  0  0  0  0  0  0  0  0
   25.8710   10.7460   20.0070 C   0  0  0  0  0  0  0  0  0  0  0  0
   24.8260   10.6610   20.9430 C   0  0  0  0  0  0  0  0  0  0  0  0
   29.8540   10.9130   21.4510 C   0  0  0  0  0  0  0  0  0  0  0  0
   27.8830    9.7800   21.2080 C   0  0  0  0  0  0  0  0  0  0  0  0
   27.3000   10.8010   20.4650 C   0  0  0  0  0  0  0  0  0  0  0  0
   28.0930   11.9190   20.2200 C   0  0  0  0  0  0  0  0  0  0  0  0
   29.3850   11.9780   20.7130 C   0  0  0  0  0  0  0  0  0  0  0  0
    0.0000    0.0000    0.0000 H   0  0  0  0  0  0  0  0  0  0  0  0
    0.0000    0.0000    0.0000 H   0  0  0  0  0  0  0  0  0  0  0  0
    0.0000    0.0000    0.0000 H   0  0  0  0  0  0  0  0  0  0  0  0
    0.0000    0.0000    0.0000 H   0  0  0  0  0  0  0  0  0  0  0  0
    0.0000    0.0000    0.0000 H   0  0  0  0  0  0  0  0  0  0  0  0
    0.0000    0.0000    0.0000 H   0  0  0  0  0  0  0  0  0  0  0  0
    0.0000    0.0000    0.0000 H   0  0  0  0  0  0  0  0  0  0  0  0
    0.0000    0.0000    0.0000 H   0  0  0  0  0  0  0  0  0  0  0  0
    0.0000    0.0000    0.0000 H   0  0  0  0  0  0  0  0  0  0  0  0
    0.0000    0.0000    0.0000 H   0  0  0  0  0  0  0  0  0  0  0  0
    0.0000    0.0000    0.0000 H   0  0  0  0  0  0  0  0  0  0  0  0
    0.0000    0.0000    0.0000 H   0  0  0  0  0  0  0  0  0  0  0  0
    0.0000    0.0000    0.0000 H   0  0  0  0  0  0  0  0  0  0  0  0
   10.8364    5.1749   10.4590 C   0  0  0  0  0  0  0  0  0  0  0  0
   10.6538    3.8272   10.4478 C   0  0  0  0  0  0  0  0  0  0  0  0
    9.7221    3.2496    9.5660 C   0  0  0  0  0  0  0  0  0  0  0  0
    9.0364    4.1047    8.7492 C   0  0  0  0  0  0  0  0  0  0  0  0
    8.0257    3.6134    7.7749 C   0  0  0  0  0  0  0  0  0  0  0  0
    9.2738    5.4496    8.8172 C   0  0  0  0  0  0  0  0  0  0  0  0
   10.1887    5.9972    9.6857 N   0  0  0  0  0  0  0  0  0  0  0  0
   11.2114    3.2089   11.1019 H   0  0  0  0  0  0  0  0  0  0  0  0
    9.5477    2.1981    9.5243 H   0  0  0  0  0  0  0  0  0  0  0  0
    8.3561    3.9653    6.7756 H   0  0  0  0  0  0  0  0  0  0  0  0
    7.0523    4.1406    7.9749 H   0  0  0  0  0  0  0  0  0  0  0  0
    7.8336    2.5464    7.8452 H   0  0  0  0  0  0  0  0  0  0  0  0
    8.7184    6.1146    8.1593 H   0  0  0  0  0  0  0  0  0  0  0  0
  1  3  2  0
  1  4  1  0
  2  4  1  0
  1  5  1  0
  2  6  1  0
  5  6  1  0
  6  7  2  3
  5  8  1  0
  4 10  1  6
 10 11  2  0
 11 12  1  0
 12 13  2  0
 13 14  1  0
 10 15  1  0
 14 15  2  0
  9 16  2  0
  9 17  1  0
 14 18  1  0
 17 18  2  0
 18 19  1  0
 16 20  1  0
 19 20  2  0
  2 21  1  0
  7 22  1  0
  8 23  1  0
  8 24  1  0
  8 25  1  0
 11 26  1  0
 12 27  1  0
 13 28  1  0
 15 29  1  0
 16 30  1  0
 17 31  1  0
 19 32  1  0
 20 33  1  0
 34 35  2  0
 35 36  1  0
 36 37  2  0
 37 38  1  0
 37 39  1  0
 39 40  2  0
 40 34  1  0
 35 41  1  0
 36 42  1  0
 38 43  1  0
 38 44  1  0
 38 45  1  0
 39 46  1  0
  4 34  1  0
M  END
>  <attachment_point>  (455) 
21

>  <score>  (455) 
<NA>

$$$$
4djw
     RDKit          3D

 48 51  0  0  0  0  0  0  0  0999 V2000
   22.4950   11.8750   22.5810 C   0  0  0  0  0  0  0  0  0  0  0  0
   22.5380    9.4930   22.4640 N   0  0  0  0  0  0  0  0  0  0  0  0
   22.3600   13.0630   22.3480 O   0  0  0  0  0  0  0  0  0  0  0  0
   22.3390   10.6680   21.5610 C   0  0  2  0  0  0  0  0  0  0  0  0
   22.7860   11.3350   23.8120 N   0  0  0  0  0  0  0  0  0  0  0  0
   22.7800    9.9140   23.7010 C   0  0  0  0  0  0  0  0  0  0  0  0
   22.9970    9.1110   24.7490 N   0  0  0  0  0  0  0  0  0  0  0  0
   23.0220   12.1410   25.0180 C   0  0  0  0  0  0  0  0  0  0  0  0
   29.1260    9.8230   21.7090 N   0  0  0  0  0  0  0  0  0  0  0  0
   23.4880   10.6920   20.5300 C   0  0  0  0  0  0  0  0  0  0  0  0
   23.2110   10.7890   19.1730 C   0  0  0  0  0  0  0  0  0  0  0  0
   24.2350   10.8650   18.2430 C   0  0  0  0  0  0  0  0  0  0  0  0
   25.5500   10.8410   18.6560 C   0  0  0  0  0  0  0  0  0  0  0  0
   25.8710   10.7460   20.0070 C   0  0  0  0  0  0  0  0  0  0  0  0
   24.8260   10.6610   20.9430 C   0  0  0  0  0  0  0  0  0  0  0  0
   29.8540   10.9130   21.4510 C   0  0  0  0  0  0  0  0  0  0  0  0
   27.8830    9.7800   21.2080 C   0  0  0  0  0  0  0  0  0  0  0  0
   27.3000   10.8010   20.4650 C   0  0  0  0  0  0  0  0  0  0  0  0
   28.0930   11.9190   20.2200 C   0  0  0  0  0  0  0  0  0  0  0  0
   29.3850   11.9780   20.7130 C   0  0  0  0  0  0  0  0  0  0  0  0
    0.0000    0.0000    0.0000 H   0  0  0  0  0  0  0  0  0  0  0  0
    0.0000    0.0000    0.0000 H   0  0  0  0  0  0  0  0  0  0  0  0
    0.0000    0.0000    0.0000 H   0  0  0  0  0  0  0  0  0  0  0  0
    0.0000    0.0000    0.0000 H   0  0  0  0  0  0  0  0  0  0  0  0
    0.0000    0.0000    0.0000 H   0  0  0  0  0  0  0  0  0  0  0  0
    0.0000    0.0000    0.0000 H   0  0  0  0  0  0  0  0  0  0  0  0
    0.0000    0.0000    0.0000 H   0  0  0  0  0  0  0  0  0  0  0  0
    0.0000    0.0000    0.0000 H   0  0  0  0  0  0  0  0  0  0  0  0
    0.0000    0.0000    0.0000 H   0  0  0  0  0  0  0  0  0  0  0  0
    0.0000    0.0000    0.0000 H   0  0  0  0  0  0  0  0  0  0  0  0
    0.0000    0.0000    0.0000 H   0  0  0  0  0  0  0  0  0  0  0  0
    0.0000    0.0000    0.0000 H   0  0  0  0  0  0  0  0  0  0  0  0
    0.0000    0.0000    0.0000 H   0  0  0  0  0  0  0  0  0  0  0  0
   10.7713    5.1439   10.3962 O   0  0  0  0  0  0  0  0  0  0  0  0
   11.3538    3.9271   10.0955 C   0  0  0  0  0  0  0  0  0  0  0  0
   10.6973    2.7810   10.4934 C   0  0  0  0  0  0  0  0  0  0  0  0
   11.2848    1.5689   10.1899 C   0  0  0  0  0  0  0  0  0  0  0  0
   12.4935    1.4884    9.5086 C   0  0  0  0  0  0  0  0  0  0  0  0
   13.1492    2.6343    9.1112 C   0  0  0  0  0  0  0  0  0  0  0  0
   14.4456    2.6074    8.3793 C   0  0  0  0  0  0  0  0  0  0  0  0
   12.5627    3.8447    9.4143 C   0  0  0  0  0  0  0  0  0  0  0  0
    9.7519    2.8087   11.0270 H   0  0  0  0  0  0  0  0  0  0  0  0
   10.7710    0.6699   10.5012 H   0  0  0  0  0  0  0  0  0  0  0  0
   12.9516    0.5505    9.2717 H   0  0  0  0  0  0  0  0  0  0  0  0
   14.7895    1.5862    8.2115 H   0  0  0  0  0  0  0  0  0  0  0  0
   15.2579    3.1166    8.9718 H   0  0  0  0  0  0  0  0  0  0  0  0
   14.3866    3.1774    7.4165 H   0  0  0  0  0  0  0  0  0  0  0  0
   13.0762    4.7483    9.1030 H   0  0  0  0  0  0  0  0  0  0  0  0
  1  3  2  0
  1  4  1  0
  2  4  1  0
  1  5  1  0
  2  6  1  0
  5  6  1  0
  6  7  2  3
  5  8  1  0
  4 10  1  0
 10 11  2  0
 11 12  1  0
 12 13  2  0
 13 14  1  0
 10 15  1  0
 14 15  2  0
  9 16  2  0
  9 17  1  0
 14 18  1  0
 17 18  2  0
 18 19  1  0
 16 20  1  0
 19 20  2  0
  2 21  1  0
  7 22  1  0
  8 23  1  0
  8 24  1  0
  8 25  1  0
 11 26  1  0
 12 27  1  0
 13 28  1  0
 15 29  1  0
 16 30  1  0
 17 31  1  0
 19 32  1  0
 20 33  1  0
 34 35  1  0
 35 36  2  0
 36 37  1  0
 37 38  2  0
 38 39  1  0
 39 40  1  0
 39 41  2  0
 41 35  1  0
 36 42  1  0
 37 43  1  0
 38 44  1  0
 40 45  1  0
 40 46  1  0
 40 47  1  0
 41 48  1  0
  4 34  1  6
M  END
>  <attachment_point>  (456) 
21

>  <score>  (456) 
<NA>

$$$$
4djw
     RDKit          3D

 54 57  0  0  0  0  0  0  0  0999 V2000
   22.4950   11.8750   22.5810 C   0  0  0  0  0  0  0  0  0  0  0  0
   22.5380    9.4930   22.4640 N   0  0  0  0  0  0  0  0  0  0  0  0
   22.3600   13.0630   22.3480 O   0  0  0  0  0  0  0  0  0  0  0  0
   22.3390   10.6680   21.5610 C   0  0  2  0  0  0  0  0  0  0  0  0
   22.7860   11.3350   23.8120 N   0  0  0  0  0  0  0  0  0  0  0  0
   22.7800    9.9140   23.7010 C   0  0  0  0  0  0  0  0  0  0  0  0
   22.9970    9.1110   24.7490 N   0  0  0  0  0  0  0  0  0  0  0  0
   23.0220   12.1410   25.0180 C   0  0  0  0  0  0  0  0  0  0  0  0
   29.1260    9.8230   21.7090 N   0  0  0  0  0  0  0  0  0  0  0  0
   23.4880   10.6920   20.5300 C   0  0  0  0  0  0  0  0  0  0  0  0
   23.2110   10.7890   19.1730 C   0  0  0  0  0  0  0  0  0  0  0  0
   24.2350   10.8650   18.2430 C   0  0  0  0  0  0  0  0  0  0  0  0
   25.5500   10.8410   18.6560 C   0  0  0  0  0  0  0  0  0  0  0  0
   25.8710   10.7460   20.0070 C   0  0  0  0  0  0  0  0  0  0  0  0
   24.8260   10.6610   20.9430 C   0  0  0  0  0  0  0  0  0  0  0  0
   29.8540   10.9130   21.4510 C   0  0  0  0  0  0  0  0  0  0  0  0
   27.8830    9.7800   21.2080 C   0  0  0  0  0  0  0  0  0  0  0  0
   27.3000   10.8010   20.4650 C   0  0  0  0  0  0  0  0  0  0  0  0
   28.0930   11.9190   20.2200 C   0  0  0  0  0  0  0  0  0  0  0  0
   29.3850   11.9780   20.7130 C   0  0  0  0  0  0  0  0  0  0  0  0
    0.0000    0.0000    0.0000 H   0  0  0  0  0  0  0  0  0  0  0  0
    0.0000    0.0000    0.0000 H   0  0  0  0  0  0  0  0  0  0  0  0
    0.0000    0.0000    0.0000 H   0  0  0  0  0  0  0  0  0  0  0  0
    0.0000    0.0000    0.0000 H   0  0  0  0  0  0  0  0  0  0  0  0
    0.0000    0.0000    0.0000 H   0  0  0  0  0  0  0  0  0  0  0  0
    0.0000    0.0000    0.0000 H   0  0  0  0  0  0  0  0  0  0  0  0
    0.0000    0.0000    0.0000 H   0  0  0  0  0  0  0  0  0  0  0  0
    0.0000    0.0000    0.0000 H   0  0  0  0  0  0  0  0  0  0  0  0
    0.0000    0.0000    0.0000 H   0  0  0  0  0  0  0  0  0  0  0  0
    0.0000    0.0000    0.0000 H   0  0  0  0  0  0  0  0  0  0  0  0
    0.0000    0.0000    0.0000 H   0  0  0  0  0  0  0  0  0  0  0  0
    0.0000    0.0000    0.0000 H   0  0  0  0  0  0  0  0  0  0  0  0
    0.0000    0.0000    0.0000 H   0  0  0  0  0  0  0  0  0  0  0  0
   10.7111    5.1151   10.3380 B   0  0  0  0  0  0  0  0  0  0  0  0
   10.2533    6.4501    9.9152 O   0  0  0  0  0  0  0  0  0  0  0  0
    8.9196    6.4071   10.3723 C   0  0  0  0  0  0  0  0  0  0  0  0
    8.2017    5.4197    9.4879 C   0  0  0  0  0  0  0  0  0  0  0  0
    8.2796    7.7431   10.4419 C   0  0  0  0  0  0  0  0  0  0  0  0
    9.1251    5.7607   11.7356 C   0  0  0  0  0  0  0  0  0  0  0  0
    7.8322    5.5111   12.4381 C   0  0  0  0  0  0  0  0  0  0  0  0
   10.1248    6.5157   12.5746 C   0  0  0  0  0  0  0  0  0  0  0  0
    9.7631    4.5724   11.3309 O   0  0  0  0  0  0  0  0  0  0  0  0
    8.7454    4.4431    9.6175 H   0  0  0  0  0  0  0  0  0  0  0  0
    8.3134    5.6987    8.4096 H   0  0  0  0  0  0  0  0  0  0  0  0
    7.1296    5.3371    9.6881 H   0  0  0  0  0  0  0  0  0  0  0  0
    8.4056    8.2138   11.4275 H   0  0  0  0  0  0  0  0  0  0  0  0
    8.5742    8.3915    9.5941 H   0  0  0  0  0  0  0  0  0  0  0  0
    7.1679    7.5903   10.3145 H   0  0  0  0  0  0  0  0  0  0  0  0
    7.0218    5.3003   11.7248 H   0  0  0  0  0  0  0  0  0  0  0  0
    7.5494    6.4547   12.9612 H   0  0  0  0  0  0  0  0  0  0  0  0
    7.8689    4.6739   13.1515 H   0  0  0  0  0  0  0  0  0  0  0  0
    9.7785    7.4910   12.9181 H   0  0  0  0  0  0  0  0  0  0  0  0
   11.0736    6.5576   11.9796 H   0  0  0  0  0  0  0  0  0  0  0  0
   10.3298    5.8994   13.4681 H   0  0  0  0  0  0  0  0  0  0  0  0
  1  3  2  0
  1  4  1  0
  2  4  1  0
  1  5  1  0
  2  6  1  0
  5  6  1  0
  6  7  2  3
  5  8  1  0
  4 10  1  0
 10 11  2  0
 11 12  1  0
 12 13  2  0
 13 14  1  0
 10 15  1  0
 14 15  2  0
  9 16  2  0
  9 17  1  0
 14 18  1  0
 17 18  2  0
 18 19  1  0
 16 20  1  0
 19 20  2  0
  2 21  1  0
  7 22  1  0
  8 23  1  0
  8 24  1  0
  8 25  1  0
 11 26  1  0
 12 27  1  0
 13 28  1  0
 15 29  1  0
 16 30  1  0
 17 31  1  0
 19 32  1  0
 20 33  1  0
 34 35  1  0
 35 36  1  0
 36 37  1  0
 36 38  1  0
 36 39  1  0
 39 40  1  0
 39 41  1  0
 39 42  1  0
 42 34  1  0
 37 43  1  0
 37 44  1  0
 37 45  1  0
 38 46  1  0
 38 47  1  0
 38 48  1  0
 40 49  1  0
 40 50  1  0
 40 51  1  0
 41 52  1  0
 41 53  1  0
 41 54  1  0
  4 34  1  6
M  END
>  <attachment_point>  (457) 
21

>  <score>  (457) 
<NA>

$$$$
4djw
     RDKit          3D

 50 52  0  0  0  0  0  0  0  0999 V2000
   22.4950   11.8750   22.5810 C   0  0  0  0  0  0  0  0  0  0  0  0
   22.5380    9.4930   22.4640 N   0  0  0  0  0  0  0  0  0  0  0  0
   22.3600   13.0630   22.3480 O   0  0  0  0  0  0  0  0  0  0  0  0
   22.3390   10.6680   21.5610 C   0  0  2  0  0  0  0  0  0  0  0  0
   22.7860   11.3350   23.8120 N   0  0  0  0  0  0  0  0  0  0  0  0
   22.7800    9.9140   23.7010 C   0  0  0  0  0  0  0  0  0  0  0  0
   22.9970    9.1110   24.7490 N   0  0  0  0  0  0  0  0  0  0  0  0
   23.0220   12.1410   25.0180 C   0  0  0  0  0  0  0  0  0  0  0  0
   29.1260    9.8230   21.7090 N   0  0  0  0  0  0  0  0  0  0  0  0
   23.4880   10.6920   20.5300 C   0  0  0  0  0  0  0  0  0  0  0  0
   23.2110   10.7890   19.1730 C   0  0  0  0  0  0  0  0  0  0  0  0
   24.2350   10.8650   18.2430 C   0  0  0  0  0  0  0  0  0  0  0  0
   25.5500   10.8410   18.6560 C   0  0  0  0  0  0  0  0  0  0  0  0
   25.8710   10.7460   20.0070 C   0  0  0  0  0  0  0  0  0  0  0  0
   24.8260   10.6610   20.9430 C   0  0  0  0  0  0  0  0  0  0  0  0
   29.8540   10.9130   21.4510 C   0  0  0  0  0  0  0  0  0  0  0  0
   27.8830    9.7800   21.2080 C   0  0  0  0  0  0  0  0  0  0  0  0
   27.3000   10.8010   20.4650 C   0  0  0  0  0  0  0  0  0  0  0  0
   28.0930   11.9190   20.2200 C   0  0  0  0  0  0  0  0  0  0  0  0
   29.3850   11.9780   20.7130 C   0  0  0  0  0  0  0  0  0  0  0  0
    0.0000    0.0000    0.0000 H   0  0  0  0  0  0  0  0  0  0  0  0
    0.0000    0.0000    0.0000 H   0  0  0  0  0  0  0  0  0  0  0  0
    0.0000    0.0000    0.0000 H   0  0  0  0  0  0  0  0  0  0  0  0
    0.0000    0.0000    0.0000 H   0  0  0  0  0  0  0  0  0  0  0  0
    0.0000    0.0000    0.0000 H   0  0  0  0  0  0  0  0  0  0  0  0
    0.0000    0.0000    0.0000 H   0  0  0  0  0  0  0  0  0  0  0  0
    0.0000    0.0000    0.0000 H   0  0  0  0  0  0  0  0  0  0  0  0
    0.0000    0.0000    0.0000 H   0  0  0  0  0  0  0  0  0  0  0  0
    0.0000    0.0000    0.0000 H   0  0  0  0  0  0  0  0  0  0  0  0
    0.0000    0.0000    0.0000 H   0  0  0  0  0  0  0  0  0  0  0  0
    0.0000    0.0000    0.0000 H   0  0  0  0  0  0  0  0  0  0  0  0
    0.0000    0.0000    0.0000 H   0  0  0  0  0  0  0  0  0  0  0  0
    0.0000    0.0000    0.0000 H   0  0  0  0  0  0  0  0  0  0  0  0
   10.8733    5.1925   10.4946 N   0  0  0  0  0  0  0  0  0  0  0  0
   10.9068    3.7481   10.5269 C   0  0  0  0  0  0  0  0  0  0  0  0
   10.4804    3.3181   11.9162 C   0  0  0  0  0  0  0  0  0  0  0  0
   10.4917    1.8816   12.1024 N   0  0  0  0  0  0  0  0  0  0  0  0
    9.7884    1.6305   13.3752 C   0  0  0  0  0  0  0  0  0  0  0  0
   11.9046    1.5645   12.4315 C   0  0  0  0  0  0  0  0  0  0  0  0
   11.1289    5.6277    9.6106 H   0  0  0  0  0  0  0  0  0  0  0  0
   11.9554    3.4279   10.3047 H   0  0  0  0  0  0  0  0  0  0  0  0
   10.1867    3.4125    9.7321 H   0  0  0  0  0  0  0  0  0  0  0  0
   11.2277    3.7932   12.6145 H   0  0  0  0  0  0  0  0  0  0  0  0
    9.4773    3.7222   12.0967 H   0  0  0  0  0  0  0  0  0  0  0  0
    9.2819    2.5325   13.7486 H   0  0  0  0  0  0  0  0  0  0  0  0
   10.4488    1.2238   14.1535 H   0  0  0  0  0  0  0  0  0  0  0  0
    9.0589    0.8020   13.1500 H   0  0  0  0  0  0  0  0  0  0  0  0
   12.4083    1.2283   11.5399 H   0  0  0  0  0  0  0  0  0  0  0  0
   11.9372    0.8123   13.2847 H   0  0  0  0  0  0  0  0  0  0  0  0
   12.4240    2.4875   12.7989 H   0  0  0  0  0  0  0  0  0  0  0  0
  1  3  2  0
  1  4  1  0
  2  4  1  0
  1  5  1  0
  2  6  1  0
  5  6  1  0
  6  7  2  3
  5  8  1  0
  4 10  1  0
 10 11  2  0
 11 12  1  0
 12 13  2  0
 13 14  1  0
 10 15  1  0
 14 15  2  0
  9 16  2  0
  9 17  1  0
 14 18  1  0
 17 18  2  0
 18 19  1  0
 16 20  1  0
 19 20  2  0
  2 21  1  0
  7 22  1  0
  8 23  1  0
  8 24  1  0
  8 25  1  0
 11 26  1  0
 12 27  1  0
 13 28  1  0
 15 29  1  0
 16 30  1  0
 17 31  1  0
 19 32  1  0
 20 33  1  0
 34 35  1  0
 35 36  1  0
 36 37  1  0
 37 38  1  0
 37 39  1  0
 34 40  1  0
 35 41  1  0
 35 42  1  0
 36 43  1  0
 36 44  1  0
 38 45  1  0
 38 46  1  0
 38 47  1  0
 39 48  1  0
 39 49  1  0
 39 50  1  0
  4 34  1  6
M  END
>  <attachment_point>  (458) 
21

>  <score>  (458) 
<NA>

$$$$
4djw
     RDKit          3D

 50 53  0  0  0  0  0  0  0  0999 V2000
   22.4950   11.8750   22.5810 C   0  0  0  0  0  0  0  0  0  0  0  0
   22.5380    9.4930   22.4640 N   0  0  0  0  0  0  0  0  0  0  0  0
   22.3600   13.0630   22.3480 O   0  0  0  0  0  0  0  0  0  0  0  0
   22.3390   10.6680   21.5610 C   0  0  2  0  0  0  0  0  0  0  0  0
   22.7860   11.3350   23.8120 N   0  0  0  0  0  0  0  0  0  0  0  0
   22.7800    9.9140   23.7010 C   0  0  0  0  0  0  0  0  0  0  0  0
   22.9970    9.1110   24.7490 N   0  0  0  0  0  0  0  0  0  0  0  0
   23.0220   12.1410   25.0180 C   0  0  0  0  0  0  0  0  0  0  0  0
   29.1260    9.8230   21.7090 N   0  0  0  0  0  0  0  0  0  0  0  0
   23.4880   10.6920   20.5300 C   0  0  0  0  0  0  0  0  0  0  0  0
   23.2110   10.7890   19.1730 C   0  0  0  0  0  0  0  0  0  0  0  0
   24.2350   10.8650   18.2430 C   0  0  0  0  0  0  0  0  0  0  0  0
   25.5500   10.8410   18.6560 C   0  0  0  0  0  0  0  0  0  0  0  0
   25.8710   10.7460   20.0070 C   0  0  0  0  0  0  0  0  0  0  0  0
   24.8260   10.6610   20.9430 C   0  0  0  0  0  0  0  0  0  0  0  0
   29.8540   10.9130   21.4510 C   0  0  0  0  0  0  0  0  0  0  0  0
   27.8830    9.7800   21.2080 C   0  0  0  0  0  0  0  0  0  0  0  0
   27.3000   10.8010   20.4650 C   0  0  0  0  0  0  0  0  0  0  0  0
   28.0930   11.9190   20.2200 C   0  0  0  0  0  0  0  0  0  0  0  0
   29.3850   11.9780   20.7130 C   0  0  0  0  0  0  0  0  0  0  0  0
    0.0000    0.0000    0.0000 H   0  0  0  0  0  0  0  0  0  0  0  0
    0.0000    0.0000    0.0000 H   0  0  0  0  0  0  0  0  0  0  0  0
    0.0000    0.0000    0.0000 H   0  0  0  0  0  0  0  0  0  0  0  0
    0.0000    0.0000    0.0000 H   0  0  0  0  0  0  0  0  0  0  0  0
    0.0000    0.0000    0.0000 H   0  0  0  0  0  0  0  0  0  0  0  0
    0.0000    0.0000    0.0000 H   0  0  0  0  0  0  0  0  0  0  0  0
    0.0000    0.0000    0.0000 H   0  0  0  0  0  0  0  0  0  0  0  0
    0.0000    0.0000    0.0000 H   0  0  0  0  0  0  0  0  0  0  0  0
    0.0000    0.0000    0.0000 H   0  0  0  0  0  0  0  0  0  0  0  0
    0.0000    0.0000    0.0000 H   0  0  0  0  0  0  0  0  0  0  0  0
    0.0000    0.0000    0.0000 H   0  0  0  0  0  0  0  0  0  0  0  0
    0.0000    0.0000    0.0000 H   0  0  0  0  0  0  0  0  0  0  0  0
    0.0000    0.0000    0.0000 H   0  0  0  0  0  0  0  0  0  0  0  0
   10.8346    5.1741   10.4573 N   0  0  0  0  0  0  0  0  0  0  0  0
   11.3488    4.8078    9.2226 C   0  0  0  0  0  0  0  0  0  0  0  0
   12.9819    4.9551    8.9853 S   0  0  0  0  0  0  0  0  0  0  0  0
   10.5987    4.3206    8.1411 N   0  0  0  0  0  0  0  0  0  0  0  0
    9.1974    4.1853    8.2957 C   0  0  0  0  0  0  0  0  0  0  0  0
    8.2910    5.1763    7.9052 C   0  0  0  0  0  0  0  0  0  0  0  0
    6.9400    5.0257    8.0677 C   0  0  0  0  0  0  0  0  0  0  0  0
    6.4312    3.8793    8.6270 C   0  0  0  0  0  0  0  0  0  0  0  0
    7.3163    2.8733    9.0257 C   0  0  0  0  0  0  0  0  0  0  0  0
    8.6956    3.0330    8.8574 C   0  0  0  0  0  0  0  0  0  0  0  0
    9.9155    5.1895   10.8557 H   0  0  0  0  0  0  0  0  0  0  0  0
   11.0408    4.0612    7.2399 H   0  0  0  0  0  0  0  0  0  0  0  0
    8.7454    6.0542    7.4717 H   0  0  0  0  0  0  0  0  0  0  0  0
    6.2813    5.8126    7.7528 H   0  0  0  0  0  0  0  0  0  0  0  0
    5.3745    3.7094    8.7770 H   0  0  0  0  0  0  0  0  0  0  0  0
    6.9623    1.9498    9.4724 H   0  0  0  0  0  0  0  0  0  0  0  0
    9.3451    2.2229    9.1829 H   0  0  0  0  0  0  0  0  0  0  0  0
  1  3  2  0
  1  4  1  0
  2  4  1  0
  1  5  1  0
  2  6  1  0
  5  6  1  0
  6  7  2  3
  5  8  1  0
  4 10  1  0
 10 11  2  0
 11 12  1  0
 12 13  2  0
 13 14  1  0
 10 15  1  0
 14 15  2  0
  9 16  2  0
  9 17  1  0
 14 18  1  0
 17 18  2  0
 18 19  1  0
 16 20  1  0
 19 20  2  0
  2 21  1  0
  7 22  1  0
  8 23  1  0
  8 24  1  0
  8 25  1  0
 11 26  1  0
 12 27  1  0
 13 28  1  0
 15 29  1  0
 16 30  1  0
 17 31  1  0
 19 32  1  0
 20 33  1  0
 34 35  1  0
 35 36  2  0
 35 37  1  0
 37 38  1  0
 38 39  2  0
 39 40  1  0
 40 41  2  0
 41 42  1  0
 42 43  2  0
 43 38  1  0
 34 44  1  0
 37 45  1  0
 39 46  1  0
 40 47  1  0
 41 48  1  0
 42 49  1  0
 43 50  1  0
  4 34  1  6
M  END
>  <attachment_point>  (459) 
21

>  <score>  (459) 
<NA>

$$$$
4djw
     RDKit          3D

 50 53  0  0  0  0  0  0  0  0999 V2000
   22.4950   11.8750   22.5810 C   0  0  0  0  0  0  0  0  0  0  0  0
   22.5380    9.4930   22.4640 N   0  0  0  0  0  0  0  0  0  0  0  0
   22.3600   13.0630   22.3480 O   0  0  0  0  0  0  0  0  0  0  0  0
   22.3390   10.6680   21.5610 C   0  0  2  0  0  0  0  0  0  0  0  0
   22.7860   11.3350   23.8120 N   0  0  0  0  0  0  0  0  0  0  0  0
   22.7800    9.9140   23.7010 C   0  0  0  0  0  0  0  0  0  0  0  0
   22.9970    9.1110   24.7490 N   0  0  0  0  0  0  0  0  0  0  0  0
   23.0220   12.1410   25.0180 C   0  0  0  0  0  0  0  0  0  0  0  0
   29.1260    9.8230   21.7090 N   0  0  0  0  0  0  0  0  0  0  0  0
   23.4880   10.6920   20.5300 C   0  0  0  0  0  0  0  0  0  0  0  0
   23.2110   10.7890   19.1730 C   0  0  0  0  0  0  0  0  0  0  0  0
   24.2350   10.8650   18.2430 C   0  0  0  0  0  0  0  0  0  0  0  0
   25.5500   10.8410   18.6560 C   0  0  0  0  0  0  0  0  0  0  0  0
   25.8710   10.7460   20.0070 C   0  0  0  0  0  0  0  0  0  0  0  0
   24.8260   10.6610   20.9430 C   0  0  0  0  0  0  0  0  0  0  0  0
   29.8540   10.9130   21.4510 C   0  0  0  0  0  0  0  0  0  0  0  0
   27.8830    9.7800   21.2080 C   0  0  0  0  0  0  0  0  0  0  0  0
   27.3000   10.8010   20.4650 C   0  0  0  0  0  0  0  0  0  0  0  0
   28.0930   11.9190   20.2200 C   0  0  0  0  0  0  0  0  0  0  0  0
   29.3850   11.9780   20.7130 C   0  0  0  0  0  0  0  0  0  0  0  0
    0.0000    0.0000    0.0000 H   0  0  0  0  0  0  0  0  0  0  0  0
    0.0000    0.0000    0.0000 H   0  0  0  0  0  0  0  0  0  0  0  0
    0.0000    0.0000    0.0000 H   0  0  0  0  0  0  0  0  0  0  0  0
    0.0000    0.0000    0.0000 H   0  0  0  0  0  0  0  0  0  0  0  0
    0.0000    0.0000    0.0000 H   0  0  0  0  0  0  0  0  0  0  0  0
    0.0000    0.0000    0.0000 H   0  0  0  0  0  0  0  0  0  0  0  0
    0.0000    0.0000    0.0000 H   0  0  0  0  0  0  0  0  0  0  0  0
    0.0000    0.0000    0.0000 H   0  0  0  0  0  0  0  0  0  0  0  0
    0.0000    0.0000    0.0000 H   0  0  0  0  0  0  0  0  0  0  0  0
    0.0000    0.0000    0.0000 H   0  0  0  0  0  0  0  0  0  0  0  0
    0.0000    0.0000    0.0000 H   0  0  0  0  0  0  0  0  0  0  0  0
    0.0000    0.0000    0.0000 H   0  0  0  0  0  0  0  0  0  0  0  0
    0.0000    0.0000    0.0000 H   0  0  0  0  0  0  0  0  0  0  0  0
   10.8761    5.1939   10.4973 C   0  0  0  0  0  0  0  0  0  0  0  0
    9.5406    5.2234   11.1569 C   0  0  0  0  0  0  0  0  0  0  0  0
    8.7289    6.3379   11.1013 C   0  0  0  0  0  0  0  0  0  0  0  0
    7.4900    6.3566   11.7168 C   0  0  0  0  0  0  0  0  0  0  0  0
    7.0107    5.2653   12.4121 C   0  0  0  0  0  0  0  0  0  0  0  0
    5.6745    5.3103   13.0655 C   0  0  0  0  0  0  0  0  0  0  0  0
    4.6990    5.0051   12.1361 F   0  0  0  0  0  0  0  0  0  0  0  0
    5.4645    6.5377   13.6626 F   0  0  0  0  0  0  0  0  0  0  0  0
    5.6821    4.3123   14.0332 F   0  0  0  0  0  0  0  0  0  0  0  0
    7.8198    4.1477   12.4703 C   0  0  0  0  0  0  0  0  0  0  0  0
    9.0556    4.1348   11.8540 C   0  0  0  0  0  0  0  0  0  0  0  0
   11.1354    4.1318   10.3210 H   0  0  0  0  0  0  0  0  0  0  0  0
   10.9158    5.8179    9.5886 H   0  0  0  0  0  0  0  0  0  0  0  0
    9.0700    7.2231   10.5612 H   0  0  0  0  0  0  0  0  0  0  0  0
    6.8427    7.2322   11.6778 H   0  0  0  0  0  0  0  0  0  0  0  0
    7.4312    3.2840   13.0254 H   0  0  0  0  0  0  0  0  0  0  0  0
    9.6795    3.2487   11.9091 H   0  0  0  0  0  0  0  0  0  0  0  0
  1  3  2  0
  1  4  1  0
  2  4  1  0
  1  5  1  0
  2  6  1  0
  5  6  1  0
  6  7  2  3
  5  8  1  0
  4 10  1  0
 10 11  2  0
 11 12  1  0
 12 13  2  0
 13 14  1  0
 10 15  1  0
 14 15  2  0
  9 16  2  0
  9 17  1  0
 14 18  1  0
 17 18  2  0
 18 19  1  0
 16 20  1  0
 19 20  2  0
  2 21  1  0
  7 22  1  0
  8 23  1  0
  8 24  1  0
  8 25  1  0
 11 26  1  0
 12 27  1  0
 13 28  1  0
 15 29  1  0
 16 30  1  0
 17 31  1  0
 19 32  1  0
 20 33  1  0
 34 35  1  0
 35 36  2  0
 36 37  1  0
 37 38  2  0
 38 39  1  0
 39 40  1  0
 39 41  1  0
 39 42  1  0
 38 43  1  0
 43 44  2  0
 44 35  1  0
 34 45  1  0
 34 46  1  0
 36 47  1  0
 37 48  1  0
 43 49  1  0
 44 50  1  0
  4 34  1  6
M  END
>  <attachment_point>  (460) 
21

>  <score>  (460) 
<NA>

$$$$
4djw
     RDKit          3D

 53 56  0  0  0  0  0  0  0  0999 V2000
   22.4950   11.8750   22.5810 C   0  0  0  0  0  0  0  0  0  0  0  0
   22.5380    9.4930   22.4640 N   0  0  0  0  0  0  0  0  0  0  0  0
   22.3600   13.0630   22.3480 O   0  0  0  0  0  0  0  0  0  0  0  0
   22.3390   10.6680   21.5610 C   0  0  2  0  0  0  0  0  0  0  0  0
   22.7860   11.3350   23.8120 N   0  0  0  0  0  0  0  0  0  0  0  0
   22.7800    9.9140   23.7010 C   0  0  0  0  0  0  0  0  0  0  0  0
   22.9970    9.1110   24.7490 N   0  0  0  0  0  0  0  0  0  0  0  0
   23.0220   12.1410   25.0180 C   0  0  0  0  0  0  0  0  0  0  0  0
   29.1260    9.8230   21.7090 N   0  0  0  0  0  0  0  0  0  0  0  0
   23.4880   10.6920   20.5300 C   0  0  0  0  0  0  0  0  0  0  0  0
   23.2110   10.7890   19.1730 C   0  0  0  0  0  0  0  0  0  0  0  0
   24.2350   10.8650   18.2430 C   0  0  0  0  0  0  0  0  0  0  0  0
   25.5500   10.8410   18.6560 C   0  0  0  0  0  0  0  0  0  0  0  0
   25.8710   10.7460   20.0070 C   0  0  0  0  0  0  0  0  0  0  0  0
   24.8260   10.6610   20.9430 C   0  0  0  0  0  0  0  0  0  0  0  0
   29.8540   10.9130   21.4510 C   0  0  0  0  0  0  0  0  0  0  0  0
   27.8830    9.7800   21.2080 C   0  0  0  0  0  0  0  0  0  0  0  0
   27.3000   10.8010   20.4650 C   0  0  0  0  0  0  0  0  0  0  0  0
   28.0930   11.9190   20.2200 C   0  0  0  0  0  0  0  0  0  0  0  0
   29.3850   11.9780   20.7130 C   0  0  0  0  0  0  0  0  0  0  0  0
    0.0000    0.0000    0.0000 H   0  0  0  0  0  0  0  0  0  0  0  0
    0.0000    0.0000    0.0000 H   0  0  0  0  0  0  0  0  0  0  0  0
    0.0000    0.0000    0.0000 H   0  0  0  0  0  0  0  0  0  0  0  0
    0.0000    0.0000    0.0000 H   0  0  0  0  0  0  0  0  0  0  0  0
    0.0000    0.0000    0.0000 H   0  0  0  0  0  0  0  0  0  0  0  0
    0.0000    0.0000    0.0000 H   0  0  0  0  0  0  0  0  0  0  0  0
    0.0000    0.0000    0.0000 H   0  0  0  0  0  0  0  0  0  0  0  0
    0.0000    0.0000    0.0000 H   0  0  0  0  0  0  0  0  0  0  0  0
    0.0000    0.0000    0.0000 H   0  0  0  0  0  0  0  0  0  0  0  0
    0.0000    0.0000    0.0000 H   0  0  0  0  0  0  0  0  0  0  0  0
    0.0000    0.0000    0.0000 H   0  0  0  0  0  0  0  0  0  0  0  0
    0.0000    0.0000    0.0000 H   0  0  0  0  0  0  0  0  0  0  0  0
    0.0000    0.0000    0.0000 H   0  0  0  0  0  0  0  0  0  0  0  0
   10.8737    5.1928   10.4950 N   0  0  0  0  0  0  0  0  0  0  0  0
    9.5547    5.5751   10.9661 C   0  0  0  0  0  0  0  0  0  0  0  0
    9.7197    6.8905   11.6876 C   0  0  0  0  0  0  0  0  0  0  0  0
   10.4554    7.8827   10.8678 C   0  0  0  0  0  0  0  0  0  0  0  0
    9.6160    9.0101   10.7239 O   0  0  0  0  0  0  0  0  0  0  0  0
   10.1837   10.1290   11.3301 C   0  0  0  0  0  0  0  0  0  0  0  0
   10.8683    7.4515    9.5165 C   0  0  0  0  0  0  0  0  0  0  0  0
   11.1540    6.0149    9.3325 C   0  0  0  0  0  0  0  0  0  0  0  0
    8.9451    5.7625   10.0467 H   0  0  0  0  0  0  0  0  0  0  0  0
    9.0804    4.8288   11.6010 H   0  0  0  0  0  0  0  0  0  0  0  0
   10.2527    6.6440   12.6518 H   0  0  0  0  0  0  0  0  0  0  0  0
    8.7052    7.2135   12.0002 H   0  0  0  0  0  0  0  0  0  0  0  0
   11.3578    8.2170   11.4407 H   0  0  0  0  0  0  0  0  0  0  0  0
   11.1670   10.2965   10.8078 H   0  0  0  0  0  0  0  0  0  0  0  0
   10.3992    9.9454   12.4035 H   0  0  0  0  0  0  0  0  0  0  0  0
    9.4896   10.9677   11.1652 H   0  0  0  0  0  0  0  0  0  0  0  0
   10.1001    7.7719    8.7545 H   0  0  0  0  0  0  0  0  0  0  0  0
   11.7875    8.0425    9.2280 H   0  0  0  0  0  0  0  0  0  0  0  0
   12.2169    5.8297    8.9984 H   0  0  0  0  0  0  0  0  0  0  0  0
   10.5362    5.5747    8.4985 H   0  0  0  0  0  0  0  0  0  0  0  0
  1  3  2  0
  1  4  1  0
  2  4  1  0
  1  5  1  0
  2  6  1  0
  5  6  1  0
  6  7  2  3
  5  8  1  0
  4 10  1  0
 10 11  2  0
 11 12  1  0
 12 13  2  0
 13 14  1  0
 10 15  1  0
 14 15  2  0
  9 16  2  0
  9 17  1  0
 14 18  1  0
 17 18  2  0
 18 19  1  0
 16 20  1  0
 19 20  2  0
  2 21  1  0
  7 22  1  0
  8 23  1  0
  8 24  1  0
  8 25  1  0
 11 26  1  0
 12 27  1  0
 13 28  1  0
 15 29  1  0
 16 30  1  0
 17 31  1  0
 19 32  1  0
 20 33  1  0
 34 35  1  0
 35 36  1  0
 36 37  1  0
 37 38  1  0
 38 39  1  0
 37 40  1  0
 40 41  1  0
 41 34  1  0
 35 42  1  0
 35 43  1  0
 36 44  1  0
 36 45  1  0
 37 46  1  0
 39 47  1  0
 39 48  1  0
 39 49  1  0
 40 50  1  0
 40 51  1  0
 41 52  1  0
 41 53  1  0
  4 34  1  6
M  END
>  <attachment_point>  (461) 
21

>  <score>  (461) 
<NA>

$$$$
4djw
     RDKit          3D

 54 57  0  0  0  0  0  0  0  0999 V2000
   22.4950   11.8750   22.5810 C   0  0  0  0  0  0  0  0  0  0  0  0
   22.5380    9.4930   22.4640 N   0  0  0  0  0  0  0  0  0  0  0  0
   22.3600   13.0630   22.3480 O   0  0  0  0  0  0  0  0  0  0  0  0
   22.3390   10.6680   21.5610 C   0  0  2  0  0  0  0  0  0  0  0  0
   22.7860   11.3350   23.8120 N   0  0  0  0  0  0  0  0  0  0  0  0
   22.7800    9.9140   23.7010 C   0  0  0  0  0  0  0  0  0  0  0  0
   22.9970    9.1110   24.7490 N   0  0  0  0  0  0  0  0  0  0  0  0
   23.0220   12.1410   25.0180 C   0  0  0  0  0  0  0  0  0  0  0  0
   29.1260    9.8230   21.7090 N   0  0  0  0  0  0  0  0  0  0  0  0
   23.4880   10.6920   20.5300 C   0  0  0  0  0  0  0  0  0  0  0  0
   23.2110   10.7890   19.1730 C   0  0  0  0  0  0  0  0  0  0  0  0
   24.2350   10.8650   18.2430 C   0  0  0  0  0  0  0  0  0  0  0  0
   25.5500   10.8410   18.6560 C   0  0  0  0  0  0  0  0  0  0  0  0
   25.8710   10.7460   20.0070 C   0  0  0  0  0  0  0  0  0  0  0  0
   24.8260   10.6610   20.9430 C   0  0  0  0  0  0  0  0  0  0  0  0
   29.8540   10.9130   21.4510 C   0  0  0  0  0  0  0  0  0  0  0  0
   27.8830    9.7800   21.2080 C   0  0  0  0  0  0  0  0  0  0  0  0
   27.3000   10.8010   20.4650 C   0  0  0  0  0  0  0  0  0  0  0  0
   28.0930   11.9190   20.2200 C   0  0  0  0  0  0  0  0  0  0  0  0
   29.3850   11.9780   20.7130 C   0  0  0  0  0  0  0  0  0  0  0  0
    0.0000    0.0000    0.0000 H   0  0  0  0  0  0  0  0  0  0  0  0
    0.0000    0.0000    0.0000 H   0  0  0  0  0  0  0  0  0  0  0  0
    0.0000    0.0000    0.0000 H   0  0  0  0  0  0  0  0  0  0  0  0
    0.0000    0.0000    0.0000 H   0  0  0  0  0  0  0  0  0  0  0  0
    0.0000    0.0000    0.0000 H   0  0  0  0  0  0  0  0  0  0  0  0
    0.0000    0.0000    0.0000 H   0  0  0  0  0  0  0  0  0  0  0  0
    0.0000    0.0000    0.0000 H   0  0  0  0  0  0  0  0  0  0  0  0
    0.0000    0.0000    0.0000 H   0  0  0  0  0  0  0  0  0  0  0  0
    0.0000    0.0000    0.0000 H   0  0  0  0  0  0  0  0  0  0  0  0
    0.0000    0.0000    0.0000 H   0  0  0  0  0  0  0  0  0  0  0  0
    0.0000    0.0000    0.0000 H   0  0  0  0  0  0  0  0  0  0  0  0
    0.0000    0.0000    0.0000 H   0  0  0  0  0  0  0  0  0  0  0  0
    0.0000    0.0000    0.0000 H   0  0  0  0  0  0  0  0  0  0  0  0
   10.8392    5.1763   10.4617 C   0  0  0  0  0  0  0  0  0  0  0  0
    9.5507    5.4352   10.6963 C   0  0  0  0  0  0  0  0  0  0  0  0
    8.6289    4.9697    9.7640 C   0  0  0  0  0  0  0  0  0  0  0  0
    9.0250    4.2603    8.6269 C   0  0  0  0  0  0  0  0  0  0  0  0
    8.0555    3.8241    7.7368 O   0  0  0  0  0  0  0  0  0  0  0  0
    8.2447    3.1126    6.5636 C   0  0  0  0  0  0  0  0  0  0  0  0
    7.4453    1.8079    6.5757 C   0  0  0  0  0  0  0  0  0  0  0  0
    7.6293    3.9755    5.4481 C   0  0  0  0  0  0  0  0  0  0  0  0
   10.3684    4.0191    8.4312 C   0  0  0  0  0  0  0  0  0  0  0  0
   11.2980    4.4960    9.3839 C   0  0  0  0  0  0  0  0  0  0  0  0
    9.1628    5.9821   11.5596 H   0  0  0  0  0  0  0  0  0  0  0  0
    7.5704    5.1341    9.8749 H   0  0  0  0  0  0  0  0  0  0  0  0
    9.2963    2.8955    6.3625 H   0  0  0  0  0  0  0  0  0  0  0  0
    7.5516    1.3752    7.5770 H   0  0  0  0  0  0  0  0  0  0  0  0
    7.8928    1.1740    5.7688 H   0  0  0  0  0  0  0  0  0  0  0  0
    6.3979    1.9706    6.3046 H   0  0  0  0  0  0  0  0  0  0  0  0
    8.0901    3.6509    4.5110 H   0  0  0  0  0  0  0  0  0  0  0  0
    7.9374    5.0257    5.6924 H   0  0  0  0  0  0  0  0  0  0  0  0
    6.5408    3.8254    5.5098 H   0  0  0  0  0  0  0  0  0  0  0  0
   10.7406    3.4778    7.5748 H   0  0  0  0  0  0  0  0  0  0  0  0
   12.3453    4.3184    9.2489 H   0  0  0  0  0  0  0  0  0  0  0  0
  1  3  2  0
  1  4  1  0
  2  4  1  0
  1  5  1  0
  2  6  1  0
  5  6  1  0
  6  7  2  3
  5  8  1  0
  4 10  1  6
 10 11  2  0
 11 12  1  0
 12 13  2  0
 13 14  1  0
 10 15  1  0
 14 15  2  0
  9 16  2  0
  9 17  1  0
 14 18  1  0
 17 18  2  0
 18 19  1  0
 16 20  1  0
 19 20  2  0
  2 21  1  0
  7 22  1  0
  8 23  1  0
  8 24  1  0
  8 25  1  0
 11 26  1  0
 12 27  1  0
 13 28  1  0
 15 29  1  0
 16 30  1  0
 17 31  1  0
 19 32  1  0
 20 33  1  0
 34 35  2  0
 35 36  1  0
 36 37  2  0
 37 38  1  0
 38 39  1  0
 39 40  1  0
 39 41  1  0
 37 42  1  0
 42 43  2  0
 43 34  1  0
 35 44  1  0
 36 45  1  0
 39 46  1  0
 40 47  1  0
 40 48  1  0
 40 49  1  0
 41 50  1  0
 41 51  1  0
 41 52  1  0
 42 53  1  0
 43 54  1  0
  4 34  1  0
M  END
>  <attachment_point>  (462) 
21

>  <score>  (462) 
<NA>

$$$$
4djw
     RDKit          3D

 45 48  0  0  0  0  0  0  0  0999 V2000
   22.4950   11.8750   22.5810 C   0  0  0  0  0  0  0  0  0  0  0  0
   22.5380    9.4930   22.4640 N   0  0  0  0  0  0  0  0  0  0  0  0
   22.3600   13.0630   22.3480 O   0  0  0  0  0  0  0  0  0  0  0  0
   22.3390   10.6680   21.5610 C   0  0  2  0  0  0  0  0  0  0  0  0
   22.7860   11.3350   23.8120 N   0  0  0  0  0  0  0  0  0  0  0  0
   22.7800    9.9140   23.7010 C   0  0  0  0  0  0  0  0  0  0  0  0
   22.9970    9.1110   24.7490 N   0  0  0  0  0  0  0  0  0  0  0  0
   23.0220   12.1410   25.0180 C   0  0  0  0  0  0  0  0  0  0  0  0
   29.1260    9.8230   21.7090 N   0  0  0  0  0  0  0  0  0  0  0  0
   23.4880   10.6920   20.5300 C   0  0  0  0  0  0  0  0  0  0  0  0
   23.2110   10.7890   19.1730 C   0  0  0  0  0  0  0  0  0  0  0  0
   24.2350   10.8650   18.2430 C   0  0  0  0  0  0  0  0  0  0  0  0
   25.5500   10.8410   18.6560 C   0  0  0  0  0  0  0  0  0  0  0  0
   25.8710   10.7460   20.0070 C   0  0  0  0  0  0  0  0  0  0  0  0
   24.8260   10.6610   20.9430 C   0  0  0  0  0  0  0  0  0  0  0  0
   29.8540   10.9130   21.4510 C   0  0  0  0  0  0  0  0  0  0  0  0
   27.8830    9.7800   21.2080 C   0  0  0  0  0  0  0  0  0  0  0  0
   27.3000   10.8010   20.4650 C   0  0  0  0  0  0  0  0  0  0  0  0
   28.0930   11.9190   20.2200 C   0  0  0  0  0  0  0  0  0  0  0  0
   29.3850   11.9780   20.7130 C   0  0  0  0  0  0  0  0  0  0  0  0
    0.0000    0.0000    0.0000 H   0  0  0  0  0  0  0  0  0  0  0  0
    0.0000    0.0000    0.0000 H   0  0  0  0  0  0  0  0  0  0  0  0
    0.0000    0.0000    0.0000 H   0  0  0  0  0  0  0  0  0  0  0  0
    0.0000    0.0000    0.0000 H   0  0  0  0  0  0  0  0  0  0  0  0
    0.0000    0.0000    0.0000 H   0  0  0  0  0  0  0  0  0  0  0  0
    0.0000    0.0000    0.0000 H   0  0  0  0  0  0  0  0  0  0  0  0
    0.0000    0.0000    0.0000 H   0  0  0  0  0  0  0  0  0  0  0  0
    0.0000    0.0000    0.0000 H   0  0  0  0  0  0  0  0  0  0  0  0
    0.0000    0.0000    0.0000 H   0  0  0  0  0  0  0  0  0  0  0  0
    0.0000    0.0000    0.0000 H   0  0  0  0  0  0  0  0  0  0  0  0
    0.0000    0.0000    0.0000 H   0  0  0  0  0  0  0  0  0  0  0  0
    0.0000    0.0000    0.0000 H   0  0  0  0  0  0  0  0  0  0  0  0
    0.0000    0.0000    0.0000 H   0  0  0  0  0  0  0  0  0  0  0  0
   10.8909    5.2010   10.5116 C   0  0  2  0  0  0  0  0  0  0  0  0
   10.8236    6.2638    9.4052 C   0  0  0  0  0  0  0  0  0  0  0  0
   10.1936    7.3857   10.2432 C   0  0  0  0  0  0  0  0  0  0  0  0
    9.2764    6.7933   11.0586 O   0  0  0  0  0  0  0  0  0  0  0  0
    9.5213    5.4476   11.1389 C   0  0  0  0  0  0  0  0  0  0  0  0
   11.0046    4.1940   10.1159 H   0  0  0  0  0  0  0  0  0  0  0  0
   10.0934    5.9853    8.6353 H   0  0  0  0  0  0  0  0  0  0  0  0
   11.8046    6.5373    9.0294 H   0  0  0  0  0  0  0  0  0  0  0  0
   11.0431    7.7635   10.8802 H   0  0  0  0  0  0  0  0  0  0  0  0
    9.8208    8.1308    9.5477 H   0  0  0  0  0  0  0  0  0  0  0  0
    8.7439    4.8938   10.5451 H   0  0  0  0  0  0  0  0  0  0  0  0
    9.5872    5.0657   12.1787 H   0  0  0  0  0  0  0  0  0  0  0  0
  1  3  2  0
  1  4  1  0
  2  4  1  0
  1  5  1  0
  2  6  1  0
  5  6  1  0
  6  7  2  3
  5  8  1  0
  4 10  1  6
 10 11  2  0
 11 12  1  0
 12 13  2  0
 13 14  1  0
 10 15  1  0
 14 15  2  0
  9 16  2  0
  9 17  1  0
 14 18  1  0
 17 18  2  0
 18 19  1  0
 16 20  1  0
 19 20  2  0
  2 21  1  0
  7 22  1  0
  8 23  1  0
  8 24  1  0
  8 25  1  0
 11 26  1  0
 12 27  1  0
 13 28  1  0
 15 29  1  0
 16 30  1  0
 17 31  1  0
 19 32  1  0
 20 33  1  0
 34 35  1  0
 35 36  1  0
 36 37  1  0
 37 38  1  0
 38 34  1  0
 34 39  1  1
 35 40  1  0
 35 41  1  0
 36 42  1  0
 36 43  1  0
 38 44  1  0
 38 45  1  0
  4 34  1  0
M  END
>  <attachment_point>  (463) 
21

>  <score>  (463) 
<NA>

$$$$
4djw
     RDKit          3D

 44 46  0  0  0  0  0  0  0  0999 V2000
   22.4950   11.8750   22.5810 C   0  0  0  0  0  0  0  0  0  0  0  0
   22.5380    9.4930   22.4640 N   0  0  0  0  0  0  0  0  0  0  0  0
   22.3600   13.0630   22.3480 O   0  0  0  0  0  0  0  0  0  0  0  0
   22.3390   10.6680   21.5610 C   0  0  2  0  0  0  0  0  0  0  0  0
   22.7860   11.3350   23.8120 N   0  0  0  0  0  0  0  0  0  0  0  0
   22.7800    9.9140   23.7010 C   0  0  0  0  0  0  0  0  0  0  0  0
   22.9970    9.1110   24.7490 N   0  0  0  0  0  0  0  0  0  0  0  0
   23.0220   12.1410   25.0180 C   0  0  0  0  0  0  0  0  0  0  0  0
   29.1260    9.8230   21.7090 N   0  0  0  0  0  0  0  0  0  0  0  0
   23.4880   10.6920   20.5300 C   0  0  0  0  0  0  0  0  0  0  0  0
   23.2110   10.7890   19.1730 C   0  0  0  0  0  0  0  0  0  0  0  0
   24.2350   10.8650   18.2430 C   0  0  0  0  0  0  0  0  0  0  0  0
   25.5500   10.8410   18.6560 C   0  0  0  0  0  0  0  0  0  0  0  0
   25.8710   10.7460   20.0070 C   0  0  0  0  0  0  0  0  0  0  0  0
   24.8260   10.6610   20.9430 C   0  0  0  0  0  0  0  0  0  0  0  0
   29.8540   10.9130   21.4510 C   0  0  0  0  0  0  0  0  0  0  0  0
   27.8830    9.7800   21.2080 C   0  0  0  0  0  0  0  0  0  0  0  0
   27.3000   10.8010   20.4650 C   0  0  0  0  0  0  0  0  0  0  0  0
   28.0930   11.9190   20.2200 C   0  0  0  0  0  0  0  0  0  0  0  0
   29.3850   11.9780   20.7130 C   0  0  0  0  0  0  0  0  0  0  0  0
    0.0000    0.0000    0.0000 H   0  0  0  0  0  0  0  0  0  0  0  0
    0.0000    0.0000    0.0000 H   0  0  0  0  0  0  0  0  0  0  0  0
    0.0000    0.0000    0.0000 H   0  0  0  0  0  0  0  0  0  0  0  0
    0.0000    0.0000    0.0000 H   0  0  0  0  0  0  0  0  0  0  0  0
    0.0000    0.0000    0.0000 H   0  0  0  0  0  0  0  0  0  0  0  0
    0.0000    0.0000    0.0000 H   0  0  0  0  0  0  0  0  0  0  0  0
    0.0000    0.0000    0.0000 H   0  0  0  0  0  0  0  0  0  0  0  0
    0.0000    0.0000    0.0000 H   0  0  0  0  0  0  0  0  0  0  0  0
    0.0000    0.0000    0.0000 H   0  0  0  0  0  0  0  0  0  0  0  0
    0.0000    0.0000    0.0000 H   0  0  0  0  0  0  0  0  0  0  0  0
    0.0000    0.0000    0.0000 H   0  0  0  0  0  0  0  0  0  0  0  0
    0.0000    0.0000    0.0000 H   0  0  0  0  0  0  0  0  0  0  0  0
    0.0000    0.0000    0.0000 H   0  0  0  0  0  0  0  0  0  0  0  0
   10.7385    5.1282   10.3645 C   0  0  0  0  0  0  0  0  0  0  0  0
   11.6246    4.3764    9.6954 O   0  0  0  0  0  0  0  0  0  0  0  0
   12.2515    3.3776   10.4415 C   0  0  0  0  0  0  0  0  0  0  0  0
   12.9886    4.0624   11.5705 C   0  0  0  0  0  0  0  0  0  0  0  0
   10.2150    4.7253   11.1997 H   0  0  0  0  0  0  0  0  0  0  0  0
   10.6429    6.1725   10.1237 H   0  0  0  0  0  0  0  0  0  0  0  0
   11.4462    2.7002   10.8246 H   0  0  0  0  0  0  0  0  0  0  0  0
   12.9082    2.8039    9.7820 H   0  0  0  0  0  0  0  0  0  0  0  0
   13.7901    3.4317   11.9936 H   0  0  0  0  0  0  0  0  0  0  0  0
   12.2781    4.3365   12.3729 H   0  0  0  0  0  0  0  0  0  0  0  0
   13.4695    4.9810   11.1927 H   0  0  0  0  0  0  0  0  0  0  0  0
  1  3  2  0
  1  4  1  0
  2  4  1  0
  1  5  1  0
  2  6  1  0
  5  6  1  0
  6  7  2  3
  5  8  1  0
  4 10  1  0
 10 11  2  0
 11 12  1  0
 12 13  2  0
 13 14  1  0
 10 15  1  0
 14 15  2  0
  9 16  2  0
  9 17  1  0
 14 18  1  0
 17 18  2  0
 18 19  1  0
 16 20  1  0
 19 20  2  0
  2 21  1  0
  7 22  1  0
  8 23  1  0
  8 24  1  0
  8 25  1  0
 11 26  1  0
 12 27  1  0
 13 28  1  0
 15 29  1  0
 16 30  1  0
 17 31  1  0
 19 32  1  0
 20 33  1  0
 34 35  1  0
 35 36  1  0
 36 37  1  0
 34 38  1  0
 34 39  1  0
 36 40  1  0
 36 41  1  0
 37 42  1  0
 37 43  1  0
 37 44  1  0
  4 34  1  6
M  END
>  <attachment_point>  (464) 
21

>  <score>  (464) 
<NA>

$$$$
4djw
     RDKit          3D

 42 45  0  0  0  0  0  0  0  0999 V2000
   22.4950   11.8750   22.5810 C   0  0  0  0  0  0  0  0  0  0  0  0
   22.5380    9.4930   22.4640 N   0  0  0  0  0  0  0  0  0  0  0  0
   22.3600   13.0630   22.3480 O   0  0  0  0  0  0  0  0  0  0  0  0
   22.3390   10.6680   21.5610 C   0  0  2  0  0  0  0  0  0  0  0  0
   22.7860   11.3350   23.8120 N   0  0  0  0  0  0  0  0  0  0  0  0
   22.7800    9.9140   23.7010 C   0  0  0  0  0  0  0  0  0  0  0  0
   22.9970    9.1110   24.7490 N   0  0  0  0  0  0  0  0  0  0  0  0
   23.0220   12.1410   25.0180 C   0  0  0  0  0  0  0  0  0  0  0  0
   29.1260    9.8230   21.7090 N   0  0  0  0  0  0  0  0  0  0  0  0
   23.4880   10.6920   20.5300 C   0  0  0  0  0  0  0  0  0  0  0  0
   23.2110   10.7890   19.1730 C   0  0  0  0  0  0  0  0  0  0  0  0
   24.2350   10.8650   18.2430 C   0  0  0  0  0  0  0  0  0  0  0  0
   25.5500   10.8410   18.6560 C   0  0  0  0  0  0  0  0  0  0  0  0
   25.8710   10.7460   20.0070 C   0  0  0  0  0  0  0  0  0  0  0  0
   24.8260   10.6610   20.9430 C   0  0  0  0  0  0  0  0  0  0  0  0
   29.8540   10.9130   21.4510 C   0  0  0  0  0  0  0  0  0  0  0  0
   27.8830    9.7800   21.2080 C   0  0  0  0  0  0  0  0  0  0  0  0
   27.3000   10.8010   20.4650 C   0  0  0  0  0  0  0  0  0  0  0  0
   28.0930   11.9190   20.2200 C   0  0  0  0  0  0  0  0  0  0  0  0
   29.3850   11.9780   20.7130 C   0  0  0  0  0  0  0  0  0  0  0  0
    0.0000    0.0000    0.0000 H   0  0  0  0  0  0  0  0  0  0  0  0
    0.0000    0.0000    0.0000 H   0  0  0  0  0  0  0  0  0  0  0  0
    0.0000    0.0000    0.0000 H   0  0  0  0  0  0  0  0  0  0  0  0
    0.0000    0.0000    0.0000 H   0  0  0  0  0  0  0  0  0  0  0  0
    0.0000    0.0000    0.0000 H   0  0  0  0  0  0  0  0  0  0  0  0
    0.0000    0.0000    0.0000 H   0  0  0  0  0  0  0  0  0  0  0  0
    0.0000    0.0000    0.0000 H   0  0  0  0  0  0  0  0  0  0  0  0
    0.0000    0.0000    0.0000 H   0  0  0  0  0  0  0  0  0  0  0  0
    0.0000    0.0000    0.0000 H   0  0  0  0  0  0  0  0  0  0  0  0
    0.0000    0.0000    0.0000 H   0  0  0  0  0  0  0  0  0  0  0  0
    0.0000    0.0000    0.0000 H   0  0  0  0  0  0  0  0  0  0  0  0
    0.0000    0.0000    0.0000 H   0  0  0  0  0  0  0  0  0  0  0  0
    0.0000    0.0000    0.0000 H   0  0  0  0  0  0  0  0  0  0  0  0
   10.7891    5.1523   10.4133 N   0  0  0  0  0  0  0  0  0  0  0  0
   11.4761    4.4776    9.4334 C   0  0  0  0  0  0  0  0  0  0  0  0
   11.0068    3.8784    8.3661 N   0  0  0  0  0  0  0  0  0  0  0  0
   11.7801    3.2796    7.5262 C   0  0  0  0  0  0  0  0  0  0  0  0
   13.1256    3.2834    7.7785 C   0  0  0  0  0  0  0  0  0  0  0  0
   13.1840    4.1680    9.2385 S   0  0  0  0  0  0  0  0  0  0  0  0
    9.9886    5.4580   10.7678 H   0  0  0  0  0  0  0  0  0  0  0  0
   11.3834    2.7724    6.6229 H   0  0  0  0  0  0  0  0  0  0  0  0
   13.9077    2.8262    7.1724 H   0  0  0  0  0  0  0  0  0  0  0  0
  1  3  2  0
  1  4  1  0
  2  4  1  0
  1  5  1  0
  2  6  1  0
  5  6  1  0
  6  7  2  3
  5  8  1  0
  4 10  1  0
 10 11  2  0
 11 12  1  0
 12 13  2  0
 13 14  1  0
 10 15  1  0
 14 15  2  0
  9 16  2  0
  9 17  1  0
 14 18  1  0
 17 18  2  0
 18 19  1  0
 16 20  1  0
 19 20  2  0
  2 21  1  0
  7 22  1  0
  8 23  1  0
  8 24  1  0
  8 25  1  0
 11 26  1  0
 12 27  1  0
 13 28  1  0
 15 29  1  0
 16 30  1  0
 17 31  1  0
 19 32  1  0
 20 33  1  0
 34 35  1  0
 35 36  2  0
 36 37  1  0
 37 38  2  0
 38 39  1  0
 39 35  1  0
 34 40  1  0
 37 41  1  0
 38 42  1  0
  4 34  1  6
M  END
>  <attachment_point>  (465) 
21

>  <score>  (465) 
<NA>

$$$$
4djw
     RDKit          3D

 50 53  0  0  0  0  0  0  0  0999 V2000
   22.4950   11.8750   22.5810 C   0  0  0  0  0  0  0  0  0  0  0  0
   22.5380    9.4930   22.4640 N   0  0  0  0  0  0  0  0  0  0  0  0
   22.3600   13.0630   22.3480 O   0  0  0  0  0  0  0  0  0  0  0  0
   22.3390   10.6680   21.5610 C   0  0  2  0  0  0  0  0  0  0  0  0
   22.7860   11.3350   23.8120 N   0  0  0  0  0  0  0  0  0  0  0  0
   22.7800    9.9140   23.7010 C   0  0  0  0  0  0  0  0  0  0  0  0
   22.9970    9.1110   24.7490 N   0  0  0  0  0  0  0  0  0  0  0  0
   23.0220   12.1410   25.0180 C   0  0  0  0  0  0  0  0  0  0  0  0
   29.1260    9.8230   21.7090 N   0  0  0  0  0  0  0  0  0  0  0  0
   23.4880   10.6920   20.5300 C   0  0  0  0  0  0  0  0  0  0  0  0
   23.2110   10.7890   19.1730 C   0  0  0  0  0  0  0  0  0  0  0  0
   24.2350   10.8650   18.2430 C   0  0  0  0  0  0  0  0  0  0  0  0
   25.5500   10.8410   18.6560 C   0  0  0  0  0  0  0  0  0  0  0  0
   25.8710   10.7460   20.0070 C   0  0  0  0  0  0  0  0  0  0  0  0
   24.8260   10.6610   20.9430 C   0  0  0  0  0  0  0  0  0  0  0  0
   29.8540   10.9130   21.4510 C   0  0  0  0  0  0  0  0  0  0  0  0
   27.8830    9.7800   21.2080 C   0  0  0  0  0  0  0  0  0  0  0  0
   27.3000   10.8010   20.4650 C   0  0  0  0  0  0  0  0  0  0  0  0
   28.0930   11.9190   20.2200 C   0  0  0  0  0  0  0  0  0  0  0  0
   29.3850   11.9780   20.7130 C   0  0  0  0  0  0  0  0  0  0  0  0
    0.0000    0.0000    0.0000 H   0  0  0  0  0  0  0  0  0  0  0  0
    0.0000    0.0000    0.0000 H   0  0  0  0  0  0  0  0  0  0  0  0
    0.0000    0.0000    0.0000 H   0  0  0  0  0  0  0  0  0  0  0  0
    0.0000    0.0000    0.0000 H   0  0  0  0  0  0  0  0  0  0  0  0
    0.0000    0.0000    0.0000 H   0  0  0  0  0  0  0  0  0  0  0  0
    0.0000    0.0000    0.0000 H   0  0  0  0  0  0  0  0  0  0  0  0
    0.0000    0.0000    0.0000 H   0  0  0  0  0  0  0  0  0  0  0  0
    0.0000    0.0000    0.0000 H   0  0  0  0  0  0  0  0  0  0  0  0
    0.0000    0.0000    0.0000 H   0  0  0  0  0  0  0  0  0  0  0  0
    0.0000    0.0000    0.0000 H   0  0  0  0  0  0  0  0  0  0  0  0
    0.0000    0.0000    0.0000 H   0  0  0  0  0  0  0  0  0  0  0  0
    0.0000    0.0000    0.0000 H   0  0  0  0  0  0  0  0  0  0  0  0
    0.0000    0.0000    0.0000 H   0  0  0  0  0  0  0  0  0  0  0  0
   10.8014    5.1582   10.4252 N   0  0  0  0  0  0  0  0  0  0  0  0
   11.2223    5.3287    9.1397 C   0  0  0  0  0  0  0  0  0  0  0  0
   12.3428    5.8382    8.8018 O   0  0  0  0  0  0  0  0  0  0  0  0
   10.3762    4.9195    8.0335 N   0  0  0  0  0  0  0  0  0  0  0  0
   10.7549    5.0695    6.6913 C   0  0  0  0  0  0  0  0  0  0  0  0
   11.4439    4.0309    6.0787 C   0  0  0  0  0  0  0  0  0  0  0  0
   11.8582    4.0870    4.7621 C   0  0  0  0  0  0  0  0  0  0  0  0
   11.5792    5.2050    4.0381 C   0  0  0  0  0  0  0  0  0  0  0  0
   12.1114    5.2606    2.3698 Cl  0  0  0  0  0  0  0  0  0  0  0  0
   10.8942    6.2478    4.6332 C   0  0  0  0  0  0  0  0  0  0  0  0
   10.4892    6.1851    5.9313 C   0  0  0  0  0  0  0  0  0  0  0  0
   10.0224    4.8073   10.8433 H   0  0  0  0  0  0  0  0  0  0  0  0
    9.4695    4.5077    8.3266 H   0  0  0  0  0  0  0  0  0  0  0  0
   11.6615    3.1428    6.6655 H   0  0  0  0  0  0  0  0  0  0  0  0
   12.3959    3.2225    4.3592 H   0  0  0  0  0  0  0  0  0  0  0  0
   10.6970    7.1179    4.0104 H   0  0  0  0  0  0  0  0  0  0  0  0
    9.9579    6.9901    6.3980 H   0  0  0  0  0  0  0  0  0  0  0  0
  1  3  2  0
  1  4  1  0
  2  4  1  0
  1  5  1  0
  2  6  1  0
  5  6  1  0
  6  7  2  3
  5  8  1  0
  4 10  1  0
 10 11  2  0
 11 12  1  0
 12 13  2  0
 13 14  1  0
 10 15  1  0
 14 15  2  0
  9 16  2  0
  9 17  1  0
 14 18  1  0
 17 18  2  0
 18 19  1  0
 16 20  1  0
 19 20  2  0
  2 21  1  0
  7 22  1  0
  8 23  1  0
  8 24  1  0
  8 25  1  0
 11 26  1  0
 12 27  1  0
 13 28  1  0
 15 29  1  0
 16 30  1  0
 17 31  1  0
 19 32  1  0
 20 33  1  0
 34 35  1  0
 35 36  2  0
 35 37  1  0
 37 38  1  0
 38 39  2  0
 39 40  1  0
 40 41  2  0
 41 42  1  0
 41 43  1  0
 43 44  2  0
 44 38  1  0
 34 45  1  0
 37 46  1  0
 39 47  1  0
 40 48  1  0
 43 49  1  0
 44 50  1  0
  4 34  1  6
M  END
>  <attachment_point>  (466) 
21

>  <score>  (466) 
<NA>

$$$$
4djw
     RDKit          3D

 47 50  0  0  0  0  0  0  0  0999 V2000
   22.4950   11.8750   22.5810 C   0  0  0  0  0  0  0  0  0  0  0  0
   22.5380    9.4930   22.4640 N   0  0  0  0  0  0  0  0  0  0  0  0
   22.3600   13.0630   22.3480 O   0  0  0  0  0  0  0  0  0  0  0  0
   22.3390   10.6680   21.5610 C   0  0  2  0  0  0  0  0  0  0  0  0
   22.7860   11.3350   23.8120 N   0  0  0  0  0  0  0  0  0  0  0  0
   22.7800    9.9140   23.7010 C   0  0  0  0  0  0  0  0  0  0  0  0
   22.9970    9.1110   24.7490 N   0  0  0  0  0  0  0  0  0  0  0  0
   23.0220   12.1410   25.0180 C   0  0  0  0  0  0  0  0  0  0  0  0
   29.1260    9.8230   21.7090 N   0  0  0  0  0  0  0  0  0  0  0  0
   23.4880   10.6920   20.5300 C   0  0  0  0  0  0  0  0  0  0  0  0
   23.2110   10.7890   19.1730 C   0  0  0  0  0  0  0  0  0  0  0  0
   24.2350   10.8650   18.2430 C   0  0  0  0  0  0  0  0  0  0  0  0
   25.5500   10.8410   18.6560 C   0  0  0  0  0  0  0  0  0  0  0  0
   25.8710   10.7460   20.0070 C   0  0  0  0  0  0  0  0  0  0  0  0
   24.8260   10.6610   20.9430 C   0  0  0  0  0  0  0  0  0  0  0  0
   29.8540   10.9130   21.4510 C   0  0  0  0  0  0  0  0  0  0  0  0
   27.8830    9.7800   21.2080 C   0  0  0  0  0  0  0  0  0  0  0  0
   27.3000   10.8010   20.4650 C   0  0  0  0  0  0  0  0  0  0  0  0
   28.0930   11.9190   20.2200 C   0  0  0  0  0  0  0  0  0  0  0  0
   29.3850   11.9780   20.7130 C   0  0  0  0  0  0  0  0  0  0  0  0
    0.0000    0.0000    0.0000 H   0  0  0  0  0  0  0  0  0  0  0  0
    0.0000    0.0000    0.0000 H   0  0  0  0  0  0  0  0  0  0  0  0
    0.0000    0.0000    0.0000 H   0  0  0  0  0  0  0  0  0  0  0  0
    0.0000    0.0000    0.0000 H   0  0  0  0  0  0  0  0  0  0  0  0
    0.0000    0.0000    0.0000 H   0  0  0  0  0  0  0  0  0  0  0  0
    0.0000    0.0000    0.0000 H   0  0  0  0  0  0  0  0  0  0  0  0
    0.0000    0.0000    0.0000 H   0  0  0  0  0  0  0  0  0  0  0  0
    0.0000    0.0000    0.0000 H   0  0  0  0  0  0  0  0  0  0  0  0
    0.0000    0.0000    0.0000 H   0  0  0  0  0  0  0  0  0  0  0  0
    0.0000    0.0000    0.0000 H   0  0  0  0  0  0  0  0  0  0  0  0
    0.0000    0.0000    0.0000 H   0  0  0  0  0  0  0  0  0  0  0  0
    0.0000    0.0000    0.0000 H   0  0  0  0  0  0  0  0  0  0  0  0
    0.0000    0.0000    0.0000 H   0  0  0  0  0  0  0  0  0  0  0  0
   10.8645    5.1884   10.4861 C   0  0  0  0  0  0  0  0  0  0  0  0
   11.6059    4.5518    9.3758 C   0  0  0  0  0  0  0  0  0  0  0  0
   11.8894    3.2049    9.4544 C   0  0  0  0  0  0  0  0  0  0  0  0
   12.5819    2.6334    8.4070 C   0  0  0  0  0  0  0  0  0  0  0  0
   12.9715    3.4063    7.3186 C   0  0  0  0  0  0  0  0  0  0  0  0
   13.8570    2.6896    5.9725 Cl  0  0  0  0  0  0  0  0  0  0  0  0
   12.6796    4.7488    7.2579 C   0  0  0  0  0  0  0  0  0  0  0  0
   13.1947    5.6847    5.8579 Cl  0  0  0  0  0  0  0  0  0  0  0  0
   11.9878    5.3327    8.2985 C   0  0  0  0  0  0  0  0  0  0  0  0
   10.2988    4.4306   11.0262 H   0  0  0  0  0  0  0  0  0  0  0  0
   10.2684    6.0634   10.1546 H   0  0  0  0  0  0  0  0  0  0  0  0
   11.5945    2.5891   10.2922 H   0  0  0  0  0  0  0  0  0  0  0  0
   12.8259    1.5758    8.4281 H   0  0  0  0  0  0  0  0  0  0  0  0
   11.7643    6.3874    8.2399 H   0  0  0  0  0  0  0  0  0  0  0  0
  1  3  2  0
  1  4  1  0
  2  4  1  0
  1  5  1  0
  2  6  1  0
  5  6  1  0
  6  7  2  3
  5  8  1  0
  4 10  1  0
 10 11  2  0
 11 12  1  0
 12 13  2  0
 13 14  1  0
 10 15  1  0
 14 15  2  0
  9 16  2  0
  9 17  1  0
 14 18  1  0
 17 18  2  0
 18 19  1  0
 16 20  1  0
 19 20  2  0
  2 21  1  0
  7 22  1  0
  8 23  1  0
  8 24  1  0
  8 25  1  0
 11 26  1  0
 12 27  1  0
 13 28  1  0
 15 29  1  0
 16 30  1  0
 17 31  1  0
 19 32  1  0
 20 33  1  0
 34 35  1  0
 35 36  2  0
 36 37  1  0
 37 38  2  0
 38 39  1  0
 38 40  1  0
 40 41  1  0
 40 42  2  0
 42 35  1  0
 34 43  1  0
 34 44  1  0
 36 45  1  0
 37 46  1  0
 42 47  1  0
  4 34  1  6
M  END
>  <attachment_point>  (467) 
21

>  <score>  (467) 
<NA>

$$$$
4djw
     RDKit          3D

 49 53  0  0  0  0  0  0  0  0999 V2000
   22.4950   11.8750   22.5810 C   0  0  0  0  0  0  0  0  0  0  0  0
   22.5380    9.4930   22.4640 N   0  0  0  0  0  0  0  0  0  0  0  0
   22.3600   13.0630   22.3480 O   0  0  0  0  0  0  0  0  0  0  0  0
   22.3390   10.6680   21.5610 C   0  0  2  0  0  0  0  0  0  0  0  0
   22.7860   11.3350   23.8120 N   0  0  0  0  0  0  0  0  0  0  0  0
   22.7800    9.9140   23.7010 C   0  0  0  0  0  0  0  0  0  0  0  0
   22.9970    9.1110   24.7490 N   0  0  0  0  0  0  0  0  0  0  0  0
   23.0220   12.1410   25.0180 C   0  0  0  0  0  0  0  0  0  0  0  0
   29.1260    9.8230   21.7090 N   0  0  0  0  0  0  0  0  0  0  0  0
   23.4880   10.6920   20.5300 C   0  0  0  0  0  0  0  0  0  0  0  0
   23.2110   10.7890   19.1730 C   0  0  0  0  0  0  0  0  0  0  0  0
   24.2350   10.8650   18.2430 C   0  0  0  0  0  0  0  0  0  0  0  0
   25.5500   10.8410   18.6560 C   0  0  0  0  0  0  0  0  0  0  0  0
   25.8710   10.7460   20.0070 C   0  0  0  0  0  0  0  0  0  0  0  0
   24.8260   10.6610   20.9430 C   0  0  0  0  0  0  0  0  0  0  0  0
   29.8540   10.9130   21.4510 C   0  0  0  0  0  0  0  0  0  0  0  0
   27.8830    9.7800   21.2080 C   0  0  0  0  0  0  0  0  0  0  0  0
   27.3000   10.8010   20.4650 C   0  0  0  0  0  0  0  0  0  0  0  0
   28.0930   11.9190   20.2200 C   0  0  0  0  0  0  0  0  0  0  0  0
   29.3850   11.9780   20.7130 C   0  0  0  0  0  0  0  0  0  0  0  0
    0.0000    0.0000    0.0000 H   0  0  0  0  0  0  0  0  0  0  0  0
    0.0000    0.0000    0.0000 H   0  0  0  0  0  0  0  0  0  0  0  0
    0.0000    0.0000    0.0000 H   0  0  0  0  0  0  0  0  0  0  0  0
    0.0000    0.0000    0.0000 H   0  0  0  0  0  0  0  0  0  0  0  0
    0.0000    0.0000    0.0000 H   0  0  0  0  0  0  0  0  0  0  0  0
    0.0000    0.0000    0.0000 H   0  0  0  0  0  0  0  0  0  0  0  0
    0.0000    0.0000    0.0000 H   0  0  0  0  0  0  0  0  0  0  0  0
    0.0000    0.0000    0.0000 H   0  0  0  0  0  0  0  0  0  0  0  0
    0.0000    0.0000    0.0000 H   0  0  0  0  0  0  0  0  0  0  0  0
    0.0000    0.0000    0.0000 H   0  0  0  0  0  0  0  0  0  0  0  0
    0.0000    0.0000    0.0000 H   0  0  0  0  0  0  0  0  0  0  0  0
    0.0000    0.0000    0.0000 H   0  0  0  0  0  0  0  0  0  0  0  0
    0.0000    0.0000    0.0000 H   0  0  0  0  0  0  0  0  0  0  0  0
   10.8586    5.1855   10.4804 C   0  0  0  0  0  0  0  0  0  0  0  0
    9.5246    5.4408   10.7223 C   0  0  0  0  0  0  0  0  0  0  0  0
    8.5623    5.0045    9.8336 C   0  0  0  0  0  0  0  0  0  0  0  0
    8.9880    4.3146    8.7135 C   0  0  0  0  0  0  0  0  0  0  0  0
   10.3312    4.0591    8.4728 C   0  0  0  0  0  0  0  0  0  0  0  0
   10.7513    3.3693    7.3521 C   0  0  0  0  0  0  0  0  0  0  0  0
   12.0975    3.1402    7.1570 C   0  0  0  0  0  0  0  0  0  0  0  0
   13.0420    3.5856    8.0588 C   0  0  0  0  0  0  0  0  0  0  0  0
   12.6092    4.2553    9.1430 N   0  0  0  0  0  0  0  0  0  0  0  0
   11.2968    4.5028    9.3745 C   0  0  0  0  0  0  0  0  0  0  0  0
    9.1840    5.9894   11.6126 H   0  0  0  0  0  0  0  0  0  0  0  0
    7.5146    5.1992   10.0135 H   0  0  0  0  0  0  0  0  0  0  0  0
    8.2570    3.9640    8.0055 H   0  0  0  0  0  0  0  0  0  0  0  0
    9.9918    3.0303    6.6599 H   0  0  0  0  0  0  0  0  0  0  0  0
   12.4339    2.6003    6.2810 H   0  0  0  0  0  0  0  0  0  0  0  0
   14.0731    3.3812    7.8597 H   0  0  0  0  0  0  0  0  0  0  0  0
  1  3  2  0
  1  4  1  0
  2  4  1  0
  1  5  1  0
  2  6  1  0
  5  6  1  0
  6  7  2  3
  5  8  1  0
  4 10  1  6
 10 11  2  0
 11 12  1  0
 12 13  2  0
 13 14  1  0
 10 15  1  0
 14 15  2  0
  9 16  2  0
  9 17  1  0
 14 18  1  0
 17 18  2  0
 18 19  1  0
 16 20  1  0
 19 20  2  0
  2 21  1  0
  7 22  1  0
  8 23  1  0
  8 24  1  0
  8 25  1  0
 11 26  1  0
 12 27  1  0
 13 28  1  0
 15 29  1  0
 16 30  1  0
 17 31  1  0
 19 32  1  0
 20 33  1  0
 34 35  2  0
 35 36  1  0
 36 37  2  0
 37 38  1  0
 38 39  2  0
 39 40  1  0
 40 41  2  0
 41 42  1  0
 42 43  2  0
 43 34  1  0
 43 38  1  0
 35 44  1  0
 36 45  1  0
 37 46  1  0
 39 47  1  0
 40 48  1  0
 41 49  1  0
  4 34  1  0
M  END
>  <attachment_point>  (468) 
21

>  <score>  (468) 
<NA>

$$$$
4djw
     RDKit          3D

 50 53  0  0  0  0  0  0  0  0999 V2000
   22.4950   11.8750   22.5810 C   0  0  0  0  0  0  0  0  0  0  0  0
   22.5380    9.4930   22.4640 N   0  0  0  0  0  0  0  0  0  0  0  0
   22.3600   13.0630   22.3480 O   0  0  0  0  0  0  0  0  0  0  0  0
   22.3390   10.6680   21.5610 C   0  0  2  0  0  0  0  0  0  0  0  0
   22.7860   11.3350   23.8120 N   0  0  0  0  0  0  0  0  0  0  0  0
   22.7800    9.9140   23.7010 C   0  0  0  0  0  0  0  0  0  0  0  0
   22.9970    9.1110   24.7490 N   0  0  0  0  0  0  0  0  0  0  0  0
   23.0220   12.1410   25.0180 C   0  0  0  0  0  0  0  0  0  0  0  0
   29.1260    9.8230   21.7090 N   0  0  0  0  0  0  0  0  0  0  0  0
   23.4880   10.6920   20.5300 C   0  0  0  0  0  0  0  0  0  0  0  0
   23.2110   10.7890   19.1730 C   0  0  0  0  0  0  0  0  0  0  0  0
   24.2350   10.8650   18.2430 C   0  0  0  0  0  0  0  0  0  0  0  0
   25.5500   10.8410   18.6560 C   0  0  0  0  0  0  0  0  0  0  0  0
   25.8710   10.7460   20.0070 C   0  0  0  0  0  0  0  0  0  0  0  0
   24.8260   10.6610   20.9430 C   0  0  0  0  0  0  0  0  0  0  0  0
   29.8540   10.9130   21.4510 C   0  0  0  0  0  0  0  0  0  0  0  0
   27.8830    9.7800   21.2080 C   0  0  0  0  0  0  0  0  0  0  0  0
   27.3000   10.8010   20.4650 C   0  0  0  0  0  0  0  0  0  0  0  0
   28.0930   11.9190   20.2200 C   0  0  0  0  0  0  0  0  0  0  0  0
   29.3850   11.9780   20.7130 C   0  0  0  0  0  0  0  0  0  0  0  0
    0.0000    0.0000    0.0000 H   0  0  0  0  0  0  0  0  0  0  0  0
    0.0000    0.0000    0.0000 H   0  0  0  0  0  0  0  0  0  0  0  0
    0.0000    0.0000    0.0000 H   0  0  0  0  0  0  0  0  0  0  0  0
    0.0000    0.0000    0.0000 H   0  0  0  0  0  0  0  0  0  0  0  0
    0.0000    0.0000    0.0000 H   0  0  0  0  0  0  0  0  0  0  0  0
    0.0000    0.0000    0.0000 H   0  0  0  0  0  0  0  0  0  0  0  0
    0.0000    0.0000    0.0000 H   0  0  0  0  0  0  0  0  0  0  0  0
    0.0000    0.0000    0.0000 H   0  0  0  0  0  0  0  0  0  0  0  0
    0.0000    0.0000    0.0000 H   0  0  0  0  0  0  0  0  0  0  0  0
    0.0000    0.0000    0.0000 H   0  0  0  0  0  0  0  0  0  0  0  0
    0.0000    0.0000    0.0000 H   0  0  0  0  0  0  0  0  0  0  0  0
    0.0000    0.0000    0.0000 H   0  0  0  0  0  0  0  0  0  0  0  0
    0.0000    0.0000    0.0000 H   0  0  0  0  0  0  0  0  0  0  0  0
   10.8846    5.1980   10.5056 C   0  0  0  0  0  0  0  0  0  0  0  0
   10.0513    6.1267    9.8775 C   0  0  0  0  0  0  0  0  0  0  0  0
    9.1110    5.7133    8.9747 C   0  0  0  0  0  0  0  0  0  0  0  0
    9.0114    4.3536    8.7043 C   0  0  0  0  0  0  0  0  0  0  0  0
    8.0108    3.8479    7.7350 C   0  0  0  0  0  0  0  0  0  0  0  0
    9.8316    3.4338    9.3217 C   0  0  0  0  0  0  0  0  0  0  0  0
    9.6894    1.9909    9.0018 C   0  0  0  0  0  0  0  0  0  0  0  0
   10.7829    3.8359   10.2329 C   0  0  0  0  0  0  0  0  0  0  0  0
   10.1450    7.1979   10.1043 H   0  0  0  0  0  0  0  0  0  0  0  0
    8.4466    6.3956    8.4663 H   0  0  0  0  0  0  0  0  0  0  0  0
    8.3017    2.8619    7.3387 H   0  0  0  0  0  0  0  0  0  0  0  0
    7.7999    4.5750    6.9270 H   0  0  0  0  0  0  0  0  0  0  0  0
    7.0594    3.6803    8.3169 H   0  0  0  0  0  0  0  0  0  0  0  0
   10.4023    1.3690    9.5778 H   0  0  0  0  0  0  0  0  0  0  0  0
    9.9425    1.7984    7.9215 H   0  0  0  0  0  0  0  0  0  0  0  0
    8.6356    1.6419    9.1361 H   0  0  0  0  0  0  0  0  0  0  0  0
   11.4273    3.1158   10.7183 H   0  0  0  0  0  0  0  0  0  0  0  0
  1  3  2  0
  1  4  1  0
  2  4  1  0
  1  5  1  0
  2  6  1  0
  5  6  1  0
  6  7  2  3
  5  8  1  0
  4 10  1  6
 10 11  2  0
 11 12  1  0
 12 13  2  0
 13 14  1  0
 10 15  1  0
 14 15  2  0
  9 16  2  0
  9 17  1  0
 14 18  1  0
 17 18  2  0
 18 19  1  0
 16 20  1  0
 19 20  2  0
  2 21  1  0
  7 22  1  0
  8 23  1  0
  8 24  1  0
  8 25  1  0
 11 26  1  0
 12 27  1  0
 13 28  1  0
 15 29  1  0
 16 30  1  0
 17 31  1  0
 19 32  1  0
 20 33  1  0
 34 35  2  0
 35 36  1  0
 36 37  2  0
 37 38  1  0
 37 39  1  0
 39 40  1  0
 39 41  2  0
 41 34  1  0
 35 42  1  0
 36 43  1  0
 38 44  1  0
 38 45  1  0
 38 46  1  0
 40 47  1  0
 40 48  1  0
 40 49  1  0
 41 50  1  0
  4 34  1  0
M  END
>  <attachment_point>  (469) 
21

>  <score>  (469) 
<NA>

$$$$
4djw
     RDKit          3D

 51 54  0  0  0  0  0  0  0  0999 V2000
   22.4950   11.8750   22.5810 C   0  0  0  0  0  0  0  0  0  0  0  0
   22.5380    9.4930   22.4640 N   0  0  0  0  0  0  0  0  0  0  0  0
   22.3600   13.0630   22.3480 O   0  0  0  0  0  0  0  0  0  0  0  0
   22.3390   10.6680   21.5610 C   0  0  2  0  0  0  0  0  0  0  0  0
   22.7860   11.3350   23.8120 N   0  0  0  0  0  0  0  0  0  0  0  0
   22.7800    9.9140   23.7010 C   0  0  0  0  0  0  0  0  0  0  0  0
   22.9970    9.1110   24.7490 N   0  0  0  0  0  0  0  0  0  0  0  0
   23.0220   12.1410   25.0180 C   0  0  0  0  0  0  0  0  0  0  0  0
   29.1260    9.8230   21.7090 N   0  0  0  0  0  0  0  0  0  0  0  0
   23.4880   10.6920   20.5300 C   0  0  0  0  0  0  0  0  0  0  0  0
   23.2110   10.7890   19.1730 C   0  0  0  0  0  0  0  0  0  0  0  0
   24.2350   10.8650   18.2430 C   0  0  0  0  0  0  0  0  0  0  0  0
   25.5500   10.8410   18.6560 C   0  0  0  0  0  0  0  0  0  0  0  0
   25.8710   10.7460   20.0070 C   0  0  0  0  0  0  0  0  0  0  0  0
   24.8260   10.6610   20.9430 C   0  0  0  0  0  0  0  0  0  0  0  0
   29.8540   10.9130   21.4510 C   0  0  0  0  0  0  0  0  0  0  0  0
   27.8830    9.7800   21.2080 C   0  0  0  0  0  0  0  0  0  0  0  0
   27.3000   10.8010   20.4650 C   0  0  0  0  0  0  0  0  0  0  0  0
   28.0930   11.9190   20.2200 C   0  0  0  0  0  0  0  0  0  0  0  0
   29.3850   11.9780   20.7130 C   0  0  0  0  0  0  0  0  0  0  0  0
    0.0000    0.0000    0.0000 H   0  0  0  0  0  0  0  0  0  0  0  0
    0.0000    0.0000    0.0000 H   0  0  0  0  0  0  0  0  0  0  0  0
    0.0000    0.0000    0.0000 H   0  0  0  0  0  0  0  0  0  0  0  0
    0.0000    0.0000    0.0000 H   0  0  0  0  0  0  0  0  0  0  0  0
    0.0000    0.0000    0.0000 H   0  0  0  0  0  0  0  0  0  0  0  0
    0.0000    0.0000    0.0000 H   0  0  0  0  0  0  0  0  0  0  0  0
    0.0000    0.0000    0.0000 H   0  0  0  0  0  0  0  0  0  0  0  0
    0.0000    0.0000    0.0000 H   0  0  0  0  0  0  0  0  0  0  0  0
    0.0000    0.0000    0.0000 H   0  0  0  0  0  0  0  0  0  0  0  0
    0.0000    0.0000    0.0000 H   0  0  0  0  0  0  0  0  0  0  0  0
    0.0000    0.0000    0.0000 H   0  0  0  0  0  0  0  0  0  0  0  0
    0.0000    0.0000    0.0000 H   0  0  0  0  0  0  0  0  0  0  0  0
    0.0000    0.0000    0.0000 H   0  0  0  0  0  0  0  0  0  0  0  0
   10.8878    5.1995   10.5086 C   0  0  0  0  0  0  0  0  0  0  0  0
   11.2472    4.1797    9.6471 C   0  0  0  0  0  0  0  0  0  0  0  0
   10.3384    3.7205    8.7443 C   0  0  0  0  0  0  0  0  0  0  0  0
    9.0612    4.2935    8.7113 C   0  0  0  0  0  0  0  0  0  0  0  0
    8.6640    5.3049    9.5463 C   0  0  0  0  0  0  0  0  0  0  0  0
    7.3896    5.9022    9.5391 N   0  0  0  0  0  0  0  0  0  0  0  0
    6.3045    5.5981    8.7088 C   0  0  0  0  0  0  0  0  0  0  0  0
    5.0224    6.3534    8.8583 C   0  0  0  0  0  0  0  0  0  0  0  0
    6.3838    4.7058    7.8417 O   0  0  0  0  0  0  0  0  0  0  0  0
    9.6360    5.7462   10.4612 C   0  0  0  0  0  0  0  0  0  0  0  0
   12.2393    3.7293    9.6673 H   0  0  0  0  0  0  0  0  0  0  0  0
   10.5255    2.9314    8.0339 H   0  0  0  0  0  0  0  0  0  0  0  0
    8.3586    3.8942    7.9686 H   0  0  0  0  0  0  0  0  0  0  0  0
    7.2168    6.6823   10.2476 H   0  0  0  0  0  0  0  0  0  0  0  0
    4.3757    5.7896    9.5520 H   0  0  0  0  0  0  0  0  0  0  0  0
    4.5730    6.4377    7.8422 H   0  0  0  0  0  0  0  0  0  0  0  0
    5.2850    7.3525    9.2331 H   0  0  0  0  0  0  0  0  0  0  0  0
    9.3311    6.5589   11.1390 H   0  0  0  0  0  0  0  0  0  0  0  0
  1  3  2  0
  1  4  1  0
  2  4  1  0
  1  5  1  0
  2  6  1  0
  5  6  1  0
  6  7  2  3
  5  8  1  0
  4 10  1  6
 10 11  2  0
 11 12  1  0
 12 13  2  0
 13 14  1  0
 10 15  1  0
 14 15  2  0
  9 16  2  0
  9 17  1  0
 14 18  1  0
 17 18  2  0
 18 19  1  0
 16 20  1  0
 19 20  2  0
  2 21  1  0
  7 22  1  0
  8 23  1  0
  8 24  1  0
  8 25  1  0
 11 26  1  0
 12 27  1  0
 13 28  1  0
 15 29  1  0
 16 30  1  0
 17 31  1  0
 19 32  1  0
 20 33  1  0
 34 35  2  0
 35 36  1  0
 36 37  2  0
 37 38  1  0
 38 39  1  0
 39 40  1  0
 40 41  1  0
 40 42  2  0
 38 43  2  0
 43 34  1  0
 35 44  1  0
 36 45  1  0
 37 46  1  0
 39 47  1  0
 41 48  1  0
 41 49  1  0
 41 50  1  0
 43 51  1  0
  4 34  1  0
M  END
>  <attachment_point>  (470) 
21

>  <score>  (470) 
<NA>

$$$$
4djw
     RDKit          3D

 42 45  0  0  0  0  0  0  0  0999 V2000
   22.4950   11.8750   22.5810 C   0  0  0  0  0  0  0  0  0  0  0  0
   22.5380    9.4930   22.4640 N   0  0  0  0  0  0  0  0  0  0  0  0
   22.3600   13.0630   22.3480 O   0  0  0  0  0  0  0  0  0  0  0  0
   22.3390   10.6680   21.5610 C   0  0  2  0  0  0  0  0  0  0  0  0
   22.7860   11.3350   23.8120 N   0  0  0  0  0  0  0  0  0  0  0  0
   22.7800    9.9140   23.7010 C   0  0  0  0  0  0  0  0  0  0  0  0
   22.9970    9.1110   24.7490 N   0  0  0  0  0  0  0  0  0  0  0  0
   23.0220   12.1410   25.0180 C   0  0  0  0  0  0  0  0  0  0  0  0
   29.1260    9.8230   21.7090 N   0  0  0  0  0  0  0  0  0  0  0  0
   23.4880   10.6920   20.5300 C   0  0  0  0  0  0  0  0  0  0  0  0
   23.2110   10.7890   19.1730 C   0  0  0  0  0  0  0  0  0  0  0  0
   24.2350   10.8650   18.2430 C   0  0  0  0  0  0  0  0  0  0  0  0
   25.5500   10.8410   18.6560 C   0  0  0  0  0  0  0  0  0  0  0  0
   25.8710   10.7460   20.0070 C   0  0  0  0  0  0  0  0  0  0  0  0
   24.8260   10.6610   20.9430 C   0  0  0  0  0  0  0  0  0  0  0  0
   29.8540   10.9130   21.4510 C   0  0  0  0  0  0  0  0  0  0  0  0
   27.8830    9.7800   21.2080 C   0  0  0  0  0  0  0  0  0  0  0  0
   27.3000   10.8010   20.4650 C   0  0  0  0  0  0  0  0  0  0  0  0
   28.0930   11.9190   20.2200 C   0  0  0  0  0  0  0  0  0  0  0  0
   29.3850   11.9780   20.7130 C   0  0  0  0  0  0  0  0  0  0  0  0
    0.0000    0.0000    0.0000 H   0  0  0  0  0  0  0  0  0  0  0  0
    0.0000    0.0000    0.0000 H   0  0  0  0  0  0  0  0  0  0  0  0
    0.0000    0.0000    0.0000 H   0  0  0  0  0  0  0  0  0  0  0  0
    0.0000    0.0000    0.0000 H   0  0  0  0  0  0  0  0  0  0  0  0
    0.0000    0.0000    0.0000 H   0  0  0  0  0  0  0  0  0  0  0  0
    0.0000    0.0000    0.0000 H   0  0  0  0  0  0  0  0  0  0  0  0
    0.0000    0.0000    0.0000 H   0  0  0  0  0  0  0  0  0  0  0  0
    0.0000    0.0000    0.0000 H   0  0  0  0  0  0  0  0  0  0  0  0
    0.0000    0.0000    0.0000 H   0  0  0  0  0  0  0  0  0  0  0  0
    0.0000    0.0000    0.0000 H   0  0  0  0  0  0  0  0  0  0  0  0
    0.0000    0.0000    0.0000 H   0  0  0  0  0  0  0  0  0  0  0  0
    0.0000    0.0000    0.0000 H   0  0  0  0  0  0  0  0  0  0  0  0
    0.0000    0.0000    0.0000 H   0  0  0  0  0  0  0  0  0  0  0  0
   10.8495    5.1812   10.4716 C   0  0  0  0  0  0  0  0  0  0  0  0
   11.0838    4.4156    9.4195 N   0  0  0  0  0  0  0  0  0  0  0  0
    9.9062    4.2136    8.8080 N   0  0  0  0  0  0  0  0  0  0  0  0
    8.9693    4.8684    9.5092 C   0  0  0  0  0  0  0  0  0  0  0  0
    7.5279    4.9106    9.1821 C   0  0  0  0  0  0  0  0  0  0  0  0
    9.5874    5.4417   10.5109 O   0  0  0  0  0  0  0  0  0  0  0  0
    7.4142    5.6692    8.3559 H   0  0  0  0  0  0  0  0  0  0  0  0
    6.9893    5.2423   10.1020 H   0  0  0  0  0  0  0  0  0  0  0  0
    7.2088    3.9103    8.8432 H   0  0  0  0  0  0  0  0  0  0  0  0
  1  3  2  0
  1  4  1  0
  2  4  1  0
  1  5  1  0
  2  6  1  0
  5  6  1  0
  6  7  2  3
  5  8  1  0
  4 10  1  6
 10 11  2  0
 11 12  1  0
 12 13  2  0
 13 14  1  0
 10 15  1  0
 14 15  2  0
  9 16  2  0
  9 17  1  0
 14 18  1  0
 17 18  2  0
 18 19  1  0
 16 20  1  0
 19 20  2  0
  2 21  1  0
  7 22  1  0
  8 23  1  0
  8 24  1  0
  8 25  1  0
 11 26  1  0
 12 27  1  0
 13 28  1  0
 15 29  1  0
 16 30  1  0
 17 31  1  0
 19 32  1  0
 20 33  1  0
 34 35  2  0
 35 36  1  0
 36 37  2  0
 37 38  1  0
 37 39  1  0
 39 34  1  0
 38 40  1  0
 38 41  1  0
 38 42  1  0
  4 34  1  0
M  END
>  <attachment_point>  (471) 
21

>  <score>  (471) 
<NA>

$$$$
4djw
     RDKit          3D

 47 50  0  0  0  0  0  0  0  0999 V2000
   22.4950   11.8750   22.5810 C   0  0  0  0  0  0  0  0  0  0  0  0
   22.5380    9.4930   22.4640 N   0  0  0  0  0  0  0  0  0  0  0  0
   22.3600   13.0630   22.3480 O   0  0  0  0  0  0  0  0  0  0  0  0
   22.3390   10.6680   21.5610 C   0  0  2  0  0  0  0  0  0  0  0  0
   22.7860   11.3350   23.8120 N   0  0  0  0  0  0  0  0  0  0  0  0
   22.7800    9.9140   23.7010 C   0  0  0  0  0  0  0  0  0  0  0  0
   22.9970    9.1110   24.7490 N   0  0  0  0  0  0  0  0  0  0  0  0
   23.0220   12.1410   25.0180 C   0  0  0  0  0  0  0  0  0  0  0  0
   29.1260    9.8230   21.7090 N   0  0  0  0  0  0  0  0  0  0  0  0
   23.4880   10.6920   20.5300 C   0  0  0  0  0  0  0  0  0  0  0  0
   23.2110   10.7890   19.1730 C   0  0  0  0  0  0  0  0  0  0  0  0
   24.2350   10.8650   18.2430 C   0  0  0  0  0  0  0  0  0  0  0  0
   25.5500   10.8410   18.6560 C   0  0  0  0  0  0  0  0  0  0  0  0
   25.8710   10.7460   20.0070 C   0  0  0  0  0  0  0  0  0  0  0  0
   24.8260   10.6610   20.9430 C   0  0  0  0  0  0  0  0  0  0  0  0
   29.8540   10.9130   21.4510 C   0  0  0  0  0  0  0  0  0  0  0  0
   27.8830    9.7800   21.2080 C   0  0  0  0  0  0  0  0  0  0  0  0
   27.3000   10.8010   20.4650 C   0  0  0  0  0  0  0  0  0  0  0  0
   28.0930   11.9190   20.2200 C   0  0  0  0  0  0  0  0  0  0  0  0
   29.3850   11.9780   20.7130 C   0  0  0  0  0  0  0  0  0  0  0  0
    0.0000    0.0000    0.0000 H   0  0  0  0  0  0  0  0  0  0  0  0
    0.0000    0.0000    0.0000 H   0  0  0  0  0  0  0  0  0  0  0  0
    0.0000    0.0000    0.0000 H   0  0  0  0  0  0  0  0  0  0  0  0
    0.0000    0.0000    0.0000 H   0  0  0  0  0  0  0  0  0  0  0  0
    0.0000    0.0000    0.0000 H   0  0  0  0  0  0  0  0  0  0  0  0
    0.0000    0.0000    0.0000 H   0  0  0  0  0  0  0  0  0  0  0  0
    0.0000    0.0000    0.0000 H   0  0  0  0  0  0  0  0  0  0  0  0
    0.0000    0.0000    0.0000 H   0  0  0  0  0  0  0  0  0  0  0  0
    0.0000    0.0000    0.0000 H   0  0  0  0  0  0  0  0  0  0  0  0
    0.0000    0.0000    0.0000 H   0  0  0  0  0  0  0  0  0  0  0  0
    0.0000    0.0000    0.0000 H   0  0  0  0  0  0  0  0  0  0  0  0
    0.0000    0.0000    0.0000 H   0  0  0  0  0  0  0  0  0  0  0  0
    0.0000    0.0000    0.0000 H   0  0  0  0  0  0  0  0  0  0  0  0
   10.8829    5.1971   10.5039 C   0  0  0  0  0  0  0  0  0  0  0  0
   10.2105    3.9384   10.9236 C   0  0  0  0  0  0  0  0  0  0  0  0
    9.0542    3.9494   11.6771 C   0  0  0  0  0  0  0  0  0  0  0  0
    8.4199    2.7870   12.0732 C   0  0  0  0  0  0  0  0  0  0  0  0
    8.9239    1.5513   11.7268 C   0  0  0  0  0  0  0  0  0  0  0  0
   10.0778    1.5327   10.9746 C   0  0  0  0  0  0  0  0  0  0  0  0
   10.6190    0.3291   10.6044 F   0  0  0  0  0  0  0  0  0  0  0  0
   10.7085    2.6956   10.5808 C   0  0  0  0  0  0  0  0  0  0  0  0
   10.1325    6.0014   10.2542 H   0  0  0  0  0  0  0  0  0  0  0  0
   11.4375    5.0442    9.5325 H   0  0  0  0  0  0  0  0  0  0  0  0
    8.6681    4.9348   11.9430 H   0  0  0  0  0  0  0  0  0  0  0  0
    7.5145    2.8460   12.6641 H   0  0  0  0  0  0  0  0  0  0  0  0
    8.4558    0.6192   12.0181 H   0  0  0  0  0  0  0  0  0  0  0  0
   11.6309    2.6832    9.9797 H   0  0  0  0  0  0  0  0  0  0  0  0
  1  3  2  0
  1  4  1  0
  2  4  1  0
  1  5  1  0
  2  6  1  0
  5  6  1  0
  6  7  2  3
  5  8  1  0
  4 10  1  0
 10 11  2  0
 11 12  1  0
 12 13  2  0
 13 14  1  0
 10 15  1  0
 14 15  2  0
  9 16  2  0
  9 17  1  0
 14 18  1  0
 17 18  2  0
 18 19  1  0
 16 20  1  0
 19 20  2  0
  2 21  1  0
  7 22  1  0
  8 23  1  0
  8 24  1  0
  8 25  1  0
 11 26  1  0
 12 27  1  0
 13 28  1  0
 15 29  1  0
 16 30  1  0
 17 31  1  0
 19 32  1  0
 20 33  1  0
 34 35  1  0
 35 36  2  0
 36 37  1  0
 37 38  2  0
 38 39  1  0
 39 40  1  0
 39 41  2  0
 41 35  1  0
 34 42  1  0
 34 43  1  0
 36 44  1  0
 37 45  1  0
 38 46  1  0
 41 47  1  0
  4 34  1  6
M  END
>  <attachment_point>  (472) 
21

>  <score>  (472) 
<NA>

$$$$
4djw
     RDKit          3D

 53 56  0  0  0  0  0  0  0  0999 V2000
   22.4950   11.8750   22.5810 C   0  0  0  0  0  0  0  0  0  0  0  0
   22.5380    9.4930   22.4640 N   0  0  0  0  0  0  0  0  0  0  0  0
   22.3600   13.0630   22.3480 O   0  0  0  0  0  0  0  0  0  0  0  0
   22.3390   10.6680   21.5610 C   0  0  2  0  0  0  0  0  0  0  0  0
   22.7860   11.3350   23.8120 N   0  0  0  0  0  0  0  0  0  0  0  0
   22.7800    9.9140   23.7010 C   0  0  0  0  0  0  0  0  0  0  0  0
   22.9970    9.1110   24.7490 N   0  0  0  0  0  0  0  0  0  0  0  0
   23.0220   12.1410   25.0180 C   0  0  0  0  0  0  0  0  0  0  0  0
   29.1260    9.8230   21.7090 N   0  0  0  0  0  0  0  0  0  0  0  0
   23.4880   10.6920   20.5300 C   0  0  0  0  0  0  0  0  0  0  0  0
   23.2110   10.7890   19.1730 C   0  0  0  0  0  0  0  0  0  0  0  0
   24.2350   10.8650   18.2430 C   0  0  0  0  0  0  0  0  0  0  0  0
   25.5500   10.8410   18.6560 C   0  0  0  0  0  0  0  0  0  0  0  0
   25.8710   10.7460   20.0070 C   0  0  0  0  0  0  0  0  0  0  0  0
   24.8260   10.6610   20.9430 C   0  0  0  0  0  0  0  0  0  0  0  0
   29.8540   10.9130   21.4510 C   0  0  0  0  0  0  0  0  0  0  0  0
   27.8830    9.7800   21.2080 C   0  0  0  0  0  0  0  0  0  0  0  0
   27.3000   10.8010   20.4650 C   0  0  0  0  0  0  0  0  0  0  0  0
   28.0930   11.9190   20.2200 C   0  0  0  0  0  0  0  0  0  0  0  0
   29.3850   11.9780   20.7130 C   0  0  0  0  0  0  0  0  0  0  0  0
    0.0000    0.0000    0.0000 H   0  0  0  0  0  0  0  0  0  0  0  0
    0.0000    0.0000    0.0000 H   0  0  0  0  0  0  0  0  0  0  0  0
    0.0000    0.0000    0.0000 H   0  0  0  0  0  0  0  0  0  0  0  0
    0.0000    0.0000    0.0000 H   0  0  0  0  0  0  0  0  0  0  0  0
    0.0000    0.0000    0.0000 H   0  0  0  0  0  0  0  0  0  0  0  0
    0.0000    0.0000    0.0000 H   0  0  0  0  0  0  0  0  0  0  0  0
    0.0000    0.0000    0.0000 H   0  0  0  0  0  0  0  0  0  0  0  0
    0.0000    0.0000    0.0000 H   0  0  0  0  0  0  0  0  0  0  0  0
    0.0000    0.0000    0.0000 H   0  0  0  0  0  0  0  0  0  0  0  0
    0.0000    0.0000    0.0000 H   0  0  0  0  0  0  0  0  0  0  0  0
    0.0000    0.0000    0.0000 H   0  0  0  0  0  0  0  0  0  0  0  0
    0.0000    0.0000    0.0000 H   0  0  0  0  0  0  0  0  0  0  0  0
    0.0000    0.0000    0.0000 H   0  0  0  0  0  0  0  0  0  0  0  0
   10.9944    5.2504   10.6115 O   0  0  0  0  0  0  0  0  0  0  0  0
   10.9665    4.4856    9.4582 C   0  0  0  0  0  0  0  0  0  0  0  0
    9.5531    4.3791    8.9462 C   0  0  0  0  0  0  0  0  0  0  0  0
    8.7287    3.7192   10.0392 C   0  0  0  0  0  0  0  0  0  0  0  0
    7.3339    3.5653    9.5466 C   0  0  0  0  0  0  0  0  0  0  0  0
    6.7395    4.6798    8.9546 N   0  0  0  0  0  0  0  0  0  0  0  0
    7.4991    5.7683    8.5389 C   0  0  0  0  0  0  0  0  0  0  0  0
    8.9571    5.7457    8.7596 C   0  0  0  0  0  0  0  0  0  0  0  0
   11.6182    4.9456    8.7157 H   0  0  0  0  0  0  0  0  0  0  0  0
   11.3001    3.4600    9.7134 H   0  0  0  0  0  0  0  0  0  0  0  0
    9.5180    3.8388    8.0024 H   0  0  0  0  0  0  0  0  0  0  0  0
    8.7602    4.4073   10.9205 H   0  0  0  0  0  0  0  0  0  0  0  0
    9.1922    2.7474   10.2520 H   0  0  0  0  0  0  0  0  0  0  0  0
    6.7152    3.2550   10.4416 H   0  0  0  0  0  0  0  0  0  0  0  0
    7.3139    2.6496    8.8884 H   0  0  0  0  0  0  0  0  0  0  0  0
    5.9334    4.4364    8.3612 H   0  0  0  0  0  0  0  0  0  0  0  0
    7.0924    6.7077    9.0201 H   0  0  0  0  0  0  0  0  0  0  0  0
    7.3190    5.9457    7.4374 H   0  0  0  0  0  0  0  0  0  0  0  0
    9.5080    6.2206    7.8995 H   0  0  0  0  0  0  0  0  0  0  0  0
    9.2340    6.3798    9.6442 H   0  0  0  0  0  0  0  0  0  0  0  0
  1  3  2  0
  1  4  1  0
  2  4  1  0
  1  5  1  0
  2  6  1  0
  5  6  1  0
  6  7  2  3
  5  8  1  0
  4 10  1  0
 10 11  2  0
 11 12  1  0
 12 13  2  0
 13 14  1  0
 10 15  1  0
 14 15  2  0
  9 16  2  0
  9 17  1  0
 14 18  1  0
 17 18  2  0
 18 19  1  0
 16 20  1  0
 19 20  2  0
  2 21  1  0
  7 22  1  0
  8 23  1  0
  8 24  1  0
  8 25  1  0
 11 26  1  0
 12 27  1  0
 13 28  1  0
 15 29  1  0
 16 30  1  0
 17 31  1  0
 19 32  1  0
 20 33  1  0
 34 35  1  0
 35 36  1  0
 36 37  1  0
 37 38  1  0
 38 39  1  0
 39 40  1  0
 40 41  1  0
 41 36  1  0
 35 42  1  0
 35 43  1  0
 36 44  1  0
 37 45  1  0
 37 46  1  0
 38 47  1  0
 38 48  1  0
 39 49  1  0
 40 50  1  0
 40 51  1  0
 41 52  1  0
 41 53  1  0
  4 34  1  6
M  END
>  <attachment_point>  (473) 
21

>  <score>  (473) 
<NA>

$$$$
4djw
     RDKit          3D

 51 54  0  0  0  0  0  0  0  0999 V2000
   22.4950   11.8750   22.5810 C   0  0  0  0  0  0  0  0  0  0  0  0
   22.5380    9.4930   22.4640 N   0  0  0  0  0  0  0  0  0  0  0  0
   22.3600   13.0630   22.3480 O   0  0  0  0  0  0  0  0  0  0  0  0
   22.3390   10.6680   21.5610 C   0  0  2  0  0  0  0  0  0  0  0  0
   22.7860   11.3350   23.8120 N   0  0  0  0  0  0  0  0  0  0  0  0
   22.7800    9.9140   23.7010 C   0  0  0  0  0  0  0  0  0  0  0  0
   22.9970    9.1110   24.7490 N   0  0  0  0  0  0  0  0  0  0  0  0
   23.0220   12.1410   25.0180 C   0  0  0  0  0  0  0  0  0  0  0  0
   29.1260    9.8230   21.7090 N   0  0  0  0  0  0  0  0  0  0  0  0
   23.4880   10.6920   20.5300 C   0  0  0  0  0  0  0  0  0  0  0  0
   23.2110   10.7890   19.1730 C   0  0  0  0  0  0  0  0  0  0  0  0
   24.2350   10.8650   18.2430 C   0  0  0  0  0  0  0  0  0  0  0  0
   25.5500   10.8410   18.6560 C   0  0  0  0  0  0  0  0  0  0  0  0
   25.8710   10.7460   20.0070 C   0  0  0  0  0  0  0  0  0  0  0  0
   24.8260   10.6610   20.9430 C   0  0  0  0  0  0  0  0  0  0  0  0
   29.8540   10.9130   21.4510 C   0  0  0  0  0  0  0  0  0  0  0  0
   27.8830    9.7800   21.2080 C   0  0  0  0  0  0  0  0  0  0  0  0
   27.3000   10.8010   20.4650 C   0  0  0  0  0  0  0  0  0  0  0  0
   28.0930   11.9190   20.2200 C   0  0  0  0  0  0  0  0  0  0  0  0
   29.3850   11.9780   20.7130 C   0  0  0  0  0  0  0  0  0  0  0  0
    0.0000    0.0000    0.0000 H   0  0  0  0  0  0  0  0  0  0  0  0
    0.0000    0.0000    0.0000 H   0  0  0  0  0  0  0  0  0  0  0  0
    0.0000    0.0000    0.0000 H   0  0  0  0  0  0  0  0  0  0  0  0
    0.0000    0.0000    0.0000 H   0  0  0  0  0  0  0  0  0  0  0  0
    0.0000    0.0000    0.0000 H   0  0  0  0  0  0  0  0  0  0  0  0
    0.0000    0.0000    0.0000 H   0  0  0  0  0  0  0  0  0  0  0  0
    0.0000    0.0000    0.0000 H   0  0  0  0  0  0  0  0  0  0  0  0
    0.0000    0.0000    0.0000 H   0  0  0  0  0  0  0  0  0  0  0  0
    0.0000    0.0000    0.0000 H   0  0  0  0  0  0  0  0  0  0  0  0
    0.0000    0.0000    0.0000 H   0  0  0  0  0  0  0  0  0  0  0  0
    0.0000    0.0000    0.0000 H   0  0  0  0  0  0  0  0  0  0  0  0
    0.0000    0.0000    0.0000 H   0  0  0  0  0  0  0  0  0  0  0  0
    0.0000    0.0000    0.0000 H   0  0  0  0  0  0  0  0  0  0  0  0
   10.8885    5.1998   10.5092 C   0  0  0  0  0  0  0  0  0  0  0  0
   10.1666    4.0755   10.9429 O   0  0  0  0  0  0  0  0  0  0  0  0
    9.5170    4.4505   12.1112 C   0  0  0  0  0  0  0  0  0  0  0  0
    8.7058    3.3715   12.7017 C   0  0  0  0  0  0  0  0  0  0  0  0
    9.2409    2.4955   13.6172 C   0  0  0  0  0  0  0  0  0  0  0  0
    8.4360    1.5035   14.1384 C   0  0  0  0  0  0  0  0  0  0  0  0
    7.1158    1.3894   13.7500 C   0  0  0  0  0  0  0  0  0  0  0  0
    6.5646    2.2616   12.8318 C   0  0  0  0  0  0  0  0  0  0  0  0
    7.3846    3.2458   12.3223 C   0  0  0  0  0  0  0  0  0  0  0  0
   11.4110    5.0047    9.5537 H   0  0  0  0  0  0  0  0  0  0  0  0
   10.1438    5.9986   10.3570 H   0  0  0  0  0  0  0  0  0  0  0  0
   10.3222    4.7115   12.8444 H   0  0  0  0  0  0  0  0  0  0  0  0
    8.9096    5.3693   12.0002 H   0  0  0  0  0  0  0  0  0  0  0  0
   10.2823    2.6254   13.8908 H   0  0  0  0  0  0  0  0  0  0  0  0
    8.8753    0.8191   14.8614 H   0  0  0  0  0  0  0  0  0  0  0  0
    6.4866    0.6205   14.1520 H   0  0  0  0  0  0  0  0  0  0  0  0
    5.5220    2.1857   12.5132 H   0  0  0  0  0  0  0  0  0  0  0  0
    6.9546    3.9449   11.5907 H   0  0  0  0  0  0  0  0  0  0  0  0
  1  3  2  0
  1  4  1  0
  2  4  1  0
  1  5  1  0
  2  6  1  0
  5  6  1  0
  6  7  2  3
  5  8  1  0
  4 10  1  0
 10 11  2  0
 11 12  1  0
 12 13  2  0
 13 14  1  0
 10 15  1  0
 14 15  2  0
  9 16  2  0
  9 17  1  0
 14 18  1  0
 17 18  2  0
 18 19  1  0
 16 20  1  0
 19 20  2  0
  2 21  1  0
  7 22  1  0
  8 23  1  0
  8 24  1  0
  8 25  1  0
 11 26  1  0
 12 27  1  0
 13 28  1  0
 15 29  1  0
 16 30  1  0
 17 31  1  0
 19 32  1  0
 20 33  1  0
 34 35  1  0
 35 36  1  0
 36 37  1  0
 37 38  2  0
 38 39  1  0
 39 40  2  0
 40 41  1  0
 41 42  2  0
 42 37  1  0
 34 43  1  0
 34 44  1  0
 36 45  1  0
 36 46  1  0
 38 47  1  0
 39 48  1  0
 40 49  1  0
 41 50  1  0
 42 51  1  0
  4 34  1  6
M  END
>  <attachment_point>  (474) 
21

>  <score>  (474) 
<NA>

$$$$
4djw
     RDKit          3D

 52 55  0  0  0  0  0  0  0  0999 V2000
   22.4950   11.8750   22.5810 C   0  0  0  0  0  0  0  0  0  0  0  0
   22.5380    9.4930   22.4640 N   0  0  0  0  0  0  0  0  0  0  0  0
   22.3600   13.0630   22.3480 O   0  0  0  0  0  0  0  0  0  0  0  0
   22.3390   10.6680   21.5610 C   0  0  2  0  0  0  0  0  0  0  0  0
   22.7860   11.3350   23.8120 N   0  0  0  0  0  0  0  0  0  0  0  0
   22.7800    9.9140   23.7010 C   0  0  0  0  0  0  0  0  0  0  0  0
   22.9970    9.1110   24.7490 N   0  0  0  0  0  0  0  0  0  0  0  0
   23.0220   12.1410   25.0180 C   0  0  0  0  0  0  0  0  0  0  0  0
   29.1260    9.8230   21.7090 N   0  0  0  0  0  0  0  0  0  0  0  0
   23.4880   10.6920   20.5300 C   0  0  0  0  0  0  0  0  0  0  0  0
   23.2110   10.7890   19.1730 C   0  0  0  0  0  0  0  0  0  0  0  0
   24.2350   10.8650   18.2430 C   0  0  0  0  0  0  0  0  0  0  0  0
   25.5500   10.8410   18.6560 C   0  0  0  0  0  0  0  0  0  0  0  0
   25.8710   10.7460   20.0070 C   0  0  0  0  0  0  0  0  0  0  0  0
   24.8260   10.6610   20.9430 C   0  0  0  0  0  0  0  0  0  0  0  0
   29.8540   10.9130   21.4510 C   0  0  0  0  0  0  0  0  0  0  0  0
   27.8830    9.7800   21.2080 C   0  0  0  0  0  0  0  0  0  0  0  0
   27.3000   10.8010   20.4650 C   0  0  0  0  0  0  0  0  0  0  0  0
   28.0930   11.9190   20.2200 C   0  0  0  0  0  0  0  0  0  0  0  0
   29.3850   11.9780   20.7130 C   0  0  0  0  0  0  0  0  0  0  0  0
    0.0000    0.0000    0.0000 H   0  0  0  0  0  0  0  0  0  0  0  0
    0.0000    0.0000    0.0000 H   0  0  0  0  0  0  0  0  0  0  0  0
    0.0000    0.0000    0.0000 H   0  0  0  0  0  0  0  0  0  0  0  0
    0.0000    0.0000    0.0000 H   0  0  0  0  0  0  0  0  0  0  0  0
    0.0000    0.0000    0.0000 H   0  0  0  0  0  0  0  0  0  0  0  0
    0.0000    0.0000    0.0000 H   0  0  0  0  0  0  0  0  0  0  0  0
    0.0000    0.0000    0.0000 H   0  0  0  0  0  0  0  0  0  0  0  0
    0.0000    0.0000    0.0000 H   0  0  0  0  0  0  0  0  0  0  0  0
    0.0000    0.0000    0.0000 H   0  0  0  0  0  0  0  0  0  0  0  0
    0.0000    0.0000    0.0000 H   0  0  0  0  0  0  0  0  0  0  0  0
    0.0000    0.0000    0.0000 H   0  0  0  0  0  0  0  0  0  0  0  0
    0.0000    0.0000    0.0000 H   0  0  0  0  0  0  0  0  0  0  0  0
    0.0000    0.0000    0.0000 H   0  0  0  0  0  0  0  0  0  0  0  0
   10.8867    5.1989   10.5075 C   0  0  0  0  0  0  0  0  0  0  0  0
    9.8202    6.0105   10.1535 C   0  0  0  0  0  0  0  0  0  0  0  0
    8.8838    5.5647    9.2507 C   0  0  0  0  0  0  0  0  0  0  0  0
    9.0197    4.2945    8.6993 C   0  0  0  0  0  0  0  0  0  0  0  0
    8.0737    3.8469    7.7886 O   0  0  0  0  0  0  0  0  0  0  0  0
    8.2267    2.5614    7.2418 C   0  0  0  0  0  0  0  0  0  0  0  0
   10.0986    3.5073    9.0747 C   0  0  0  0  0  0  0  0  0  0  0  0
   11.0445    3.9444    9.9802 C   0  0  0  0  0  0  0  0  0  0  0  0
   12.1006    3.1108   10.3153 O   0  0  0  0  0  0  0  0  0  0  0  0
   12.3076    1.8358    9.8128 C   0  0  0  0  0  0  0  0  0  0  0  0
    9.7212    7.0145   10.5954 H   0  0  0  0  0  0  0  0  0  0  0  0
    8.0342    6.1795    8.9525 H   0  0  0  0  0  0  0  0  0  0  0  0
    7.3468    2.3620    6.5938 H   0  0  0  0  0  0  0  0  0  0  0  0
    8.3247    1.7774    8.0304 H   0  0  0  0  0  0  0  0  0  0  0  0
    9.1499    2.4907    6.6033 H   0  0  0  0  0  0  0  0  0  0  0  0
   10.1868    2.5376    8.6427 H   0  0  0  0  0  0  0  0  0  0  0  0
   11.3784    1.2447    9.6770 H   0  0  0  0  0  0  0  0  0  0  0  0
   12.8963    1.8565    8.8549 H   0  0  0  0  0  0  0  0  0  0  0  0
   12.9717    1.2921   10.5459 H   0  0  0  0  0  0  0  0  0  0  0  0
  1  3  2  0
  1  4  1  0
  2  4  1  0
  1  5  1  0
  2  6  1  0
  5  6  1  0
  6  7  2  3
  5  8  1  0
  4 10  1  6
 10 11  2  0
 11 12  1  0
 12 13  2  0
 13 14  1  0
 10 15  1  0
 14 15  2  0
  9 16  2  0
  9 17  1  0
 14 18  1  0
 17 18  2  0
 18 19  1  0
 16 20  1  0
 19 20  2  0
  2 21  1  0
  7 22  1  0
  8 23  1  0
  8 24  1  0
  8 25  1  0
 11 26  1  0
 12 27  1  0
 13 28  1  0
 15 29  1  0
 16 30  1  0
 17 31  1  0
 19 32  1  0
 20 33  1  0
 34 35  2  0
 35 36  1  0
 36 37  2  0
 37 38  1  0
 38 39  1  0
 37 40  1  0
 40 41  2  0
 41 42  1  0
 42 43  1  0
 41 34  1  0
 35 44  1  0
 36 45  1  0
 39 46  1  0
 39 47  1  0
 39 48  1  0
 40 49  1  0
 43 50  1  0
 43 51  1  0
 43 52  1  0
  4 34  1  0
M  END
>  <attachment_point>  (475) 
21

>  <score>  (475) 
<NA>

$$$$
4djw
     RDKit          3D

 46 49  0  0  0  0  0  0  0  0999 V2000
   22.4950   11.8750   22.5810 C   0  0  0  0  0  0  0  0  0  0  0  0
   22.5380    9.4930   22.4640 N   0  0  0  0  0  0  0  0  0  0  0  0
   22.3600   13.0630   22.3480 O   0  0  0  0  0  0  0  0  0  0  0  0
   22.3390   10.6680   21.5610 C   0  0  2  0  0  0  0  0  0  0  0  0
   22.7860   11.3350   23.8120 N   0  0  0  0  0  0  0  0  0  0  0  0
   22.7800    9.9140   23.7010 C   0  0  0  0  0  0  0  0  0  0  0  0
   22.9970    9.1110   24.7490 N   0  0  0  0  0  0  0  0  0  0  0  0
   23.0220   12.1410   25.0180 C   0  0  0  0  0  0  0  0  0  0  0  0
   29.1260    9.8230   21.7090 N   0  0  0  0  0  0  0  0  0  0  0  0
   23.4880   10.6920   20.5300 C   0  0  0  0  0  0  0  0  0  0  0  0
   23.2110   10.7890   19.1730 C   0  0  0  0  0  0  0  0  0  0  0  0
   24.2350   10.8650   18.2430 C   0  0  0  0  0  0  0  0  0  0  0  0
   25.5500   10.8410   18.6560 C   0  0  0  0  0  0  0  0  0  0  0  0
   25.8710   10.7460   20.0070 C   0  0  0  0  0  0  0  0  0  0  0  0
   24.8260   10.6610   20.9430 C   0  0  0  0  0  0  0  0  0  0  0  0
   29.8540   10.9130   21.4510 C   0  0  0  0  0  0  0  0  0  0  0  0
   27.8830    9.7800   21.2080 C   0  0  0  0  0  0  0  0  0  0  0  0
   27.3000   10.8010   20.4650 C   0  0  0  0  0  0  0  0  0  0  0  0
   28.0930   11.9190   20.2200 C   0  0  0  0  0  0  0  0  0  0  0  0
   29.3850   11.9780   20.7130 C   0  0  0  0  0  0  0  0  0  0  0  0
    0.0000    0.0000    0.0000 H   0  0  0  0  0  0  0  0  0  0  0  0
    0.0000    0.0000    0.0000 H   0  0  0  0  0  0  0  0  0  0  0  0
    0.0000    0.0000    0.0000 H   0  0  0  0  0  0  0  0  0  0  0  0
    0.0000    0.0000    0.0000 H   0  0  0  0  0  0  0  0  0  0  0  0
    0.0000    0.0000    0.0000 H   0  0  0  0  0  0  0  0  0  0  0  0
    0.0000    0.0000    0.0000 H   0  0  0  0  0  0  0  0  0  0  0  0
    0.0000    0.0000    0.0000 H   0  0  0  0  0  0  0  0  0  0  0  0
    0.0000    0.0000    0.0000 H   0  0  0  0  0  0  0  0  0  0  0  0
    0.0000    0.0000    0.0000 H   0  0  0  0  0  0  0  0  0  0  0  0
    0.0000    0.0000    0.0000 H   0  0  0  0  0  0  0  0  0  0  0  0
    0.0000    0.0000    0.0000 H   0  0  0  0  0  0  0  0  0  0  0  0
    0.0000    0.0000    0.0000 H   0  0  0  0  0  0  0  0  0  0  0  0
    0.0000    0.0000    0.0000 H   0  0  0  0  0  0  0  0  0  0  0  0
   10.8578    5.1851   10.4796 C   0  0  0  0  0  0  0  0  0  0  0  0
   11.2806    4.6725    9.2940 C   0  0  0  0  0  0  0  0  0  0  0  0
   10.3972    4.2019    8.3324 C   0  0  0  0  0  0  0  0  0  0  0  0
   10.9250    3.6522    7.0537 C   0  0  0  0  0  0  0  0  0  0  0  0
    9.0644    4.2739    8.6262 C   0  0  0  0  0  0  0  0  0  0  0  0
    8.6729    4.8005    9.8396 C   0  0  0  0  0  0  0  0  0  0  0  0
    9.5602    5.2534   10.7612 N   0  0  0  0  0  0  0  0  0  0  0  0
   12.3341    4.6315    9.0975 H   0  0  0  0  0  0  0  0  0  0  0  0
   10.1535    3.0500    6.5374 H   0  0  0  0  0  0  0  0  0  0  0  0
   11.3160    4.4857    6.4207 H   0  0  0  0  0  0  0  0  0  0  0  0
   11.7987    2.9817    7.2288 H   0  0  0  0  0  0  0  0  0  0  0  0
    8.3297    3.9196    7.9090 H   0  0  0  0  0  0  0  0  0  0  0  0
    7.5941    4.8413   10.0385 H   0  0  0  0  0  0  0  0  0  0  0  0
  1  3  2  0
  1  4  1  0
  2  4  1  0
  1  5  1  0
  2  6  1  0
  5  6  1  0
  6  7  2  3
  5  8  1  0
  4 10  1  6
 10 11  2  0
 11 12  1  0
 12 13  2  0
 13 14  1  0
 10 15  1  0
 14 15  2  0
  9 16  2  0
  9 17  1  0
 14 18  1  0
 17 18  2  0
 18 19  1  0
 16 20  1  0
 19 20  2  0
  2 21  1  0
  7 22  1  0
  8 23  1  0
  8 24  1  0
  8 25  1  0
 11 26  1  0
 12 27  1  0
 13 28  1  0
 15 29  1  0
 16 30  1  0
 17 31  1  0
 19 32  1  0
 20 33  1  0
 34 35  2  0
 35 36  1  0
 36 37  1  0
 36 38  2  0
 38 39  1  0
 39 40  2  0
 40 34  1  0
 35 41  1  0
 37 42  1  0
 37 43  1  0
 37 44  1  0
 38 45  1  0
 39 46  1  0
  4 34  1  0
M  END
>  <attachment_point>  (476) 
21

>  <score>  (476) 
<NA>

$$$$
4djw
     RDKit          3D

 38 40  0  0  0  0  0  0  0  0999 V2000
   22.4950   11.8750   22.5810 C   0  0  0  0  0  0  0  0  0  0  0  0
   22.5380    9.4930   22.4640 N   0  0  0  0  0  0  0  0  0  0  0  0
   22.3600   13.0630   22.3480 O   0  0  0  0  0  0  0  0  0  0  0  0
   22.3390   10.6680   21.5610 C   0  0  2  0  0  0  0  0  0  0  0  0
   22.7860   11.3350   23.8120 N   0  0  0  0  0  0  0  0  0  0  0  0
   22.7800    9.9140   23.7010 C   0  0  0  0  0  0  0  0  0  0  0  0
   22.9970    9.1110   24.7490 N   0  0  0  0  0  0  0  0  0  0  0  0
   23.0220   12.1410   25.0180 C   0  0  0  0  0  0  0  0  0  0  0  0
   29.1260    9.8230   21.7090 N   0  0  0  0  0  0  0  0  0  0  0  0
   23.4880   10.6920   20.5300 C   0  0  0  0  0  0  0  0  0  0  0  0
   23.2110   10.7890   19.1730 C   0  0  0  0  0  0  0  0  0  0  0  0
   24.2350   10.8650   18.2430 C   0  0  0  0  0  0  0  0  0  0  0  0
   25.5500   10.8410   18.6560 C   0  0  0  0  0  0  0  0  0  0  0  0
   25.8710   10.7460   20.0070 C   0  0  0  0  0  0  0  0  0  0  0  0
   24.8260   10.6610   20.9430 C   0  0  0  0  0  0  0  0  0  0  0  0
   29.8540   10.9130   21.4510 C   0  0  0  0  0  0  0  0  0  0  0  0
   27.8830    9.7800   21.2080 C   0  0  0  0  0  0  0  0  0  0  0  0
   27.3000   10.8010   20.4650 C   0  0  0  0  0  0  0  0  0  0  0  0
   28.0930   11.9190   20.2200 C   0  0  0  0  0  0  0  0  0  0  0  0
   29.3850   11.9780   20.7130 C   0  0  0  0  0  0  0  0  0  0  0  0
    0.0000    0.0000    0.0000 H   0  0  0  0  0  0  0  0  0  0  0  0
    0.0000    0.0000    0.0000 H   0  0  0  0  0  0  0  0  0  0  0  0
    0.0000    0.0000    0.0000 H   0  0  0  0  0  0  0  0  0  0  0  0
    0.0000    0.0000    0.0000 H   0  0  0  0  0  0  0  0  0  0  0  0
    0.0000    0.0000    0.0000 H   0  0  0  0  0  0  0  0  0  0  0  0
    0.0000    0.0000    0.0000 H   0  0  0  0  0  0  0  0  0  0  0  0
    0.0000    0.0000    0.0000 H   0  0  0  0  0  0  0  0  0  0  0  0
    0.0000    0.0000    0.0000 H   0  0  0  0  0  0  0  0  0  0  0  0
    0.0000    0.0000    0.0000 H   0  0  0  0  0  0  0  0  0  0  0  0
    0.0000    0.0000    0.0000 H   0  0  0  0  0  0  0  0  0  0  0  0
    0.0000    0.0000    0.0000 H   0  0  0  0  0  0  0  0  0  0  0  0
    0.0000    0.0000    0.0000 H   0  0  0  0  0  0  0  0  0  0  0  0
    0.0000    0.0000    0.0000 H   0  0  0  0  0  0  0  0  0  0  0  0
   10.9286    5.2190   10.5480 N   0  0  0  0  0  0  0  0  0  0  0  0
    9.5995    5.4645   10.8031 N   0  0  0  0  0  0  0  0  0  0  0  0
   11.0991    5.3504    9.5134 H   0  0  0  0  0  0  0  0  0  0  0  0
    9.3383    6.4414   10.9577 H   0  0  0  0  0  0  0  0  0  0  0  0
    9.1001    4.7553   11.3415 H   0  0  0  0  0  0  0  0  0  0  0  0
  1  3  2  0
  1  4  1  0
  2  4  1  0
  1  5  1  0
  2  6  1  0
  5  6  1  0
  6  7  2  3
  5  8  1  0
  4 10  1  0
 10 11  2  0
 11 12  1  0
 12 13  2  0
 13 14  1  0
 10 15  1  0
 14 15  2  0
  9 16  2  0
  9 17  1  0
 14 18  1  0
 17 18  2  0
 18 19  1  0
 16 20  1  0
 19 20  2  0
  2 21  1  0
  7 22  1  0
  8 23  1  0
  8 24  1  0
  8 25  1  0
 11 26  1  0
 12 27  1  0
 13 28  1  0
 15 29  1  0
 16 30  1  0
 17 31  1  0
 19 32  1  0
 20 33  1  0
 34 35  1  0
 34 36  1  0
 35 37  1  0
 35 38  1  0
  4 34  1  6
M  END
>  <attachment_point>  (477) 
21

>  <score>  (477) 
<NA>

$$$$
4djw
     RDKit          3D

 50 53  0  0  0  0  0  0  0  0999 V2000
   22.4950   11.8750   22.5810 C   0  0  0  0  0  0  0  0  0  0  0  0
   22.5380    9.4930   22.4640 N   0  0  0  0  0  0  0  0  0  0  0  0
   22.3600   13.0630   22.3480 O   0  0  0  0  0  0  0  0  0  0  0  0
   22.3390   10.6680   21.5610 C   0  0  2  0  0  0  0  0  0  0  0  0
   22.7860   11.3350   23.8120 N   0  0  0  0  0  0  0  0  0  0  0  0
   22.7800    9.9140   23.7010 C   0  0  0  0  0  0  0  0  0  0  0  0
   22.9970    9.1110   24.7490 N   0  0  0  0  0  0  0  0  0  0  0  0
   23.0220   12.1410   25.0180 C   0  0  0  0  0  0  0  0  0  0  0  0
   29.1260    9.8230   21.7090 N   0  0  0  0  0  0  0  0  0  0  0  0
   23.4880   10.6920   20.5300 C   0  0  0  0  0  0  0  0  0  0  0  0
   23.2110   10.7890   19.1730 C   0  0  0  0  0  0  0  0  0  0  0  0
   24.2350   10.8650   18.2430 C   0  0  0  0  0  0  0  0  0  0  0  0
   25.5500   10.8410   18.6560 C   0  0  0  0  0  0  0  0  0  0  0  0
   25.8710   10.7460   20.0070 C   0  0  0  0  0  0  0  0  0  0  0  0
   24.8260   10.6610   20.9430 C   0  0  0  0  0  0  0  0  0  0  0  0
   29.8540   10.9130   21.4510 C   0  0  0  0  0  0  0  0  0  0  0  0
   27.8830    9.7800   21.2080 C   0  0  0  0  0  0  0  0  0  0  0  0
   27.3000   10.8010   20.4650 C   0  0  0  0  0  0  0  0  0  0  0  0
   28.0930   11.9190   20.2200 C   0  0  0  0  0  0  0  0  0  0  0  0
   29.3850   11.9780   20.7130 C   0  0  0  0  0  0  0  0  0  0  0  0
    0.0000    0.0000    0.0000 H   0  0  0  0  0  0  0  0  0  0  0  0
    0.0000    0.0000    0.0000 H   0  0  0  0  0  0  0  0  0  0  0  0
    0.0000    0.0000    0.0000 H   0  0  0  0  0  0  0  0  0  0  0  0
    0.0000    0.0000    0.0000 H   0  0  0  0  0  0  0  0  0  0  0  0
    0.0000    0.0000    0.0000 H   0  0  0  0  0  0  0  0  0  0  0  0
    0.0000    0.0000    0.0000 H   0  0  0  0  0  0  0  0  0  0  0  0
    0.0000    0.0000    0.0000 H   0  0  0  0  0  0  0  0  0  0  0  0
    0.0000    0.0000    0.0000 H   0  0  0  0  0  0  0  0  0  0  0  0
    0.0000    0.0000    0.0000 H   0  0  0  0  0  0  0  0  0  0  0  0
    0.0000    0.0000    0.0000 H   0  0  0  0  0  0  0  0  0  0  0  0
    0.0000    0.0000    0.0000 H   0  0  0  0  0  0  0  0  0  0  0  0
    0.0000    0.0000    0.0000 H   0  0  0  0  0  0  0  0  0  0  0  0
    0.0000    0.0000    0.0000 H   0  0  0  0  0  0  0  0  0  0  0  0
   10.8074    5.1611   10.4310 C   0  0  0  0  0  0  0  0  0  0  0  0
    9.6247    5.7830   10.4498 C   0  0  0  0  0  0  0  0  0  0  0  0
    8.6914    5.2902    9.5030 C   0  0  0  0  0  0  0  0  0  0  0  0
    9.0374    4.2565    8.6647 C   0  0  0  0  0  0  0  0  0  0  0  0
   10.2612    3.6609    8.6920 C   0  0  0  0  0  0  0  0  0  0  0  0
   10.7627    2.3465    7.6569 S   0  0  0  0  0  6  0  0  0  0  0  0
   11.5045    2.9498    6.1578 C   0  0  0  0  0  0  0  0  0  0  0  0
    9.6136    1.4622    7.2772 O   0  0  0  0  0  0  0  0  0  0  0  0
   11.7953    1.5441    8.3972 O   0  0  0  0  0  0  0  0  0  0  0  0
   11.1875    4.1543    9.6360 C   0  0  0  0  0  0  0  0  0  0  0  0
    9.3713    6.5900   11.1127 H   0  0  0  0  0  0  0  0  0  0  0  0
    7.7158    5.7422    9.4587 H   0  0  0  0  0  0  0  0  0  0  0  0
    8.3060    3.8966    7.9484 H   0  0  0  0  0  0  0  0  0  0  0  0
   12.4228    3.5408    6.3505 H   0  0  0  0  0  0  0  0  0  0  0  0
   11.8255    2.0575    5.5791 H   0  0  0  0  0  0  0  0  0  0  0  0
   10.7747    3.4914    5.5260 H   0  0  0  0  0  0  0  0  0  0  0  0
   12.1721    3.6930    9.6756 H   0  0  0  0  0  0  0  0  0  0  0  0
  1  3  2  0
  1  4  1  0
  2  4  1  0
  1  5  1  0
  2  6  1  0
  5  6  1  0
  6  7  2  3
  5  8  1  0
  4 10  1  6
 10 11  2  0
 11 12  1  0
 12 13  2  0
 13 14  1  0
 10 15  1  0
 14 15  2  0
  9 16  2  0
  9 17  1  0
 14 18  1  0
 17 18  2  0
 18 19  1  0
 16 20  1  0
 19 20  2  0
  2 21  1  0
  7 22  1  0
  8 23  1  0
  8 24  1  0
  8 25  1  0
 11 26  1  0
 12 27  1  0
 13 28  1  0
 15 29  1  0
 16 30  1  0
 17 31  1  0
 19 32  1  0
 20 33  1  0
 34 35  2  0
 35 36  1  0
 36 37  2  0
 37 38  1  0
 38 39  1  0
 39 40  1  0
 39 41  2  0
 39 42  2  0
 38 43  2  0
 43 34  1  0
 35 44  1  0
 36 45  1  0
 37 46  1  0
 40 47  1  0
 40 48  1  0
 40 49  1  0
 43 50  1  0
  4 34  1  0
M  END
>  <attachment_point>  (478) 
21

>  <score>  (478) 
<NA>

$$$$
4djw
     RDKit          3D

 56 59  0  0  0  0  0  0  0  0999 V2000
   22.4950   11.8750   22.5810 C   0  0  0  0  0  0  0  0  0  0  0  0
   22.5380    9.4930   22.4640 N   0  0  0  0  0  0  0  0  0  0  0  0
   22.3600   13.0630   22.3480 O   0  0  0  0  0  0  0  0  0  0  0  0
   22.3390   10.6680   21.5610 C   0  0  2  0  0  0  0  0  0  0  0  0
   22.7860   11.3350   23.8120 N   0  0  0  0  0  0  0  0  0  0  0  0
   22.7800    9.9140   23.7010 C   0  0  0  0  0  0  0  0  0  0  0  0
   22.9970    9.1110   24.7490 N   0  0  0  0  0  0  0  0  0  0  0  0
   23.0220   12.1410   25.0180 C   0  0  0  0  0  0  0  0  0  0  0  0
   29.1260    9.8230   21.7090 N   0  0  0  0  0  0  0  0  0  0  0  0
   23.4880   10.6920   20.5300 C   0  0  0  0  0  0  0  0  0  0  0  0
   23.2110   10.7890   19.1730 C   0  0  0  0  0  0  0  0  0  0  0  0
   24.2350   10.8650   18.2430 C   0  0  0  0  0  0  0  0  0  0  0  0
   25.5500   10.8410   18.6560 C   0  0  0  0  0  0  0  0  0  0  0  0
   25.8710   10.7460   20.0070 C   0  0  0  0  0  0  0  0  0  0  0  0
   24.8260   10.6610   20.9430 C   0  0  0  0  0  0  0  0  0  0  0  0
   29.8540   10.9130   21.4510 C   0  0  0  0  0  0  0  0  0  0  0  0
   27.8830    9.7800   21.2080 C   0  0  0  0  0  0  0  0  0  0  0  0
   27.3000   10.8010   20.4650 C   0  0  0  0  0  0  0  0  0  0  0  0
   28.0930   11.9190   20.2200 C   0  0  0  0  0  0  0  0  0  0  0  0
   29.3850   11.9780   20.7130 C   0  0  0  0  0  0  0  0  0  0  0  0
    0.0000    0.0000    0.0000 H   0  0  0  0  0  0  0  0  0  0  0  0
    0.0000    0.0000    0.0000 H   0  0  0  0  0  0  0  0  0  0  0  0
    0.0000    0.0000    0.0000 H   0  0  0  0  0  0  0  0  0  0  0  0
    0.0000    0.0000    0.0000 H   0  0  0  0  0  0  0  0  0  0  0  0
    0.0000    0.0000    0.0000 H   0  0  0  0  0  0  0  0  0  0  0  0
    0.0000    0.0000    0.0000 H   0  0  0  0  0  0  0  0  0  0  0  0
    0.0000    0.0000    0.0000 H   0  0  0  0  0  0  0  0  0  0  0  0
    0.0000    0.0000    0.0000 H   0  0  0  0  0  0  0  0  0  0  0  0
    0.0000    0.0000    0.0000 H   0  0  0  0  0  0  0  0  0  0  0  0
    0.0000    0.0000    0.0000 H   0  0  0  0  0  0  0  0  0  0  0  0
    0.0000    0.0000    0.0000 H   0  0  0  0  0  0  0  0  0  0  0  0
    0.0000    0.0000    0.0000 H   0  0  0  0  0  0  0  0  0  0  0  0
    0.0000    0.0000    0.0000 H   0  0  0  0  0  0  0  0  0  0  0  0
   10.8182    5.1662   10.4414 N   0  0  0  0  0  0  0  0  0  0  0  0
    9.6247    5.8482   10.5209 C   0  0  0  0  0  0  0  0  0  0  0  0
    9.3908    6.7884   11.3300 O   0  0  0  0  0  0  0  0  0  0  0  0
    8.5405    5.4988    9.6404 N   0  0  0  0  0  0  0  0  0  0  0  0
    7.2761    6.1734    9.6774 C   0  0  0  0  0  0  0  0  0  0  0  0
    6.9599    6.8759    8.3674 C   0  0  0  0  0  0  0  0  0  0  0  0
    5.6472    7.6134    8.5755 C   0  0  0  0  0  0  0  0  0  0  0  0
    4.5554    6.5635    8.5627 C   0  0  0  0  0  0  0  0  0  0  0  0
    5.1037    5.1901    8.8835 C   0  0  0  0  0  0  0  0  0  0  0  0
    6.1266    5.2545    9.9866 C   0  0  0  0  0  0  0  0  0  0  0  0
   11.1281    4.4367    9.8773 H   0  0  0  0  0  0  0  0  0  0  0  0
    8.7429    4.7237    8.9787 H   0  0  0  0  0  0  0  0  0  0  0  0
    7.2854    6.9599   10.4550 H   0  0  0  0  0  0  0  0  0  0  0  0
    7.7725    7.5610    8.0576 H   0  0  0  0  0  0  0  0  0  0  0  0
    6.8744    6.1082    7.5720 H   0  0  0  0  0  0  0  0  0  0  0  0
    5.4854    8.4066    7.8326 H   0  0  0  0  0  0  0  0  0  0  0  0
    5.6735    8.0341    9.6095 H   0  0  0  0  0  0  0  0  0  0  0  0
    3.7818    6.7891    9.3260 H   0  0  0  0  0  0  0  0  0  0  0  0
    4.0584    6.5337    7.5876 H   0  0  0  0  0  0  0  0  0  0  0  0
    5.4682    4.6861    7.9740 H   0  0  0  0  0  0  0  0  0  0  0  0
    4.2561    4.5821    9.2622 H   0  0  0  0  0  0  0  0  0  0  0  0
    5.5712    5.5703   10.9183 H   0  0  0  0  0  0  0  0  0  0  0  0
    6.5489    4.2360   10.1244 H   0  0  0  0  0  0  0  0  0  0  0  0
  1  3  2  0
  1  4  1  0
  2  4  1  0
  1  5  1  0
  2  6  1  0
  5  6  1  0
  6  7  2  3
  5  8  1  0
  4 10  1  0
 10 11  2  0
 11 12  1  0
 12 13  2  0
 13 14  1  0
 10 15  1  0
 14 15  2  0
  9 16  2  0
  9 17  1  0
 14 18  1  0
 17 18  2  0
 18 19  1  0
 16 20  1  0
 19 20  2  0
  2 21  1  0
  7 22  1  0
  8 23  1  0
  8 24  1  0
  8 25  1  0
 11 26  1  0
 12 27  1  0
 13 28  1  0
 15 29  1  0
 16 30  1  0
 17 31  1  0
 19 32  1  0
 20 33  1  0
 34 35  1  0
 35 36  2  0
 35 37  1  0
 37 38  1  0
 38 39  1  0
 39 40  1  0
 40 41  1  0
 41 42  1  0
 42 43  1  0
 43 38  1  0
 34 44  1  0
 37 45  1  0
 38 46  1  0
 39 47  1  0
 39 48  1  0
 40 49  1  0
 40 50  1  0
 41 51  1  0
 41 52  1  0
 42 53  1  0
 42 54  1  0
 43 55  1  0
 43 56  1  0
  4 34  1  6
M  END
>  <attachment_point>  (479) 
21

>  <score>  (479) 
<NA>

$$$$
4djw
     RDKit          3D

 41 43  0  0  0  0  0  0  0  0999 V2000
   22.4950   11.8750   22.5810 C   0  0  0  0  0  0  0  0  0  0  0  0
   22.5380    9.4930   22.4640 N   0  0  0  0  0  0  0  0  0  0  0  0
   22.3600   13.0630   22.3480 O   0  0  0  0  0  0  0  0  0  0  0  0
   22.3390   10.6680   21.5610 C   0  0  2  0  0  0  0  0  0  0  0  0
   22.7860   11.3350   23.8120 N   0  0  0  0  0  0  0  0  0  0  0  0
   22.7800    9.9140   23.7010 C   0  0  0  0  0  0  0  0  0  0  0  0
   22.9970    9.1110   24.7490 N   0  0  0  0  0  0  0  0  0  0  0  0
   23.0220   12.1410   25.0180 C   0  0  0  0  0  0  0  0  0  0  0  0
   29.1260    9.8230   21.7090 N   0  0  0  0  0  0  0  0  0  0  0  0
   23.4880   10.6920   20.5300 C   0  0  0  0  0  0  0  0  0  0  0  0
   23.2110   10.7890   19.1730 C   0  0  0  0  0  0  0  0  0  0  0  0
   24.2350   10.8650   18.2430 C   0  0  0  0  0  0  0  0  0  0  0  0
   25.5500   10.8410   18.6560 C   0  0  0  0  0  0  0  0  0  0  0  0
   25.8710   10.7460   20.0070 C   0  0  0  0  0  0  0  0  0  0  0  0
   24.8260   10.6610   20.9430 C   0  0  0  0  0  0  0  0  0  0  0  0
   29.8540   10.9130   21.4510 C   0  0  0  0  0  0  0  0  0  0  0  0
   27.8830    9.7800   21.2080 C   0  0  0  0  0  0  0  0  0  0  0  0
   27.3000   10.8010   20.4650 C   0  0  0  0  0  0  0  0  0  0  0  0
   28.0930   11.9190   20.2200 C   0  0  0  0  0  0  0  0  0  0  0  0
   29.3850   11.9780   20.7130 C   0  0  0  0  0  0  0  0  0  0  0  0
    0.0000    0.0000    0.0000 H   0  0  0  0  0  0  0  0  0  0  0  0
    0.0000    0.0000    0.0000 H   0  0  0  0  0  0  0  0  0  0  0  0
    0.0000    0.0000    0.0000 H   0  0  0  0  0  0  0  0  0  0  0  0
    0.0000    0.0000    0.0000 H   0  0  0  0  0  0  0  0  0  0  0  0
    0.0000    0.0000    0.0000 H   0  0  0  0  0  0  0  0  0  0  0  0
    0.0000    0.0000    0.0000 H   0  0  0  0  0  0  0  0  0  0  0  0
    0.0000    0.0000    0.0000 H   0  0  0  0  0  0  0  0  0  0  0  0
    0.0000    0.0000    0.0000 H   0  0  0  0  0  0  0  0  0  0  0  0
    0.0000    0.0000    0.0000 H   0  0  0  0  0  0  0  0  0  0  0  0
    0.0000    0.0000    0.0000 H   0  0  0  0  0  0  0  0  0  0  0  0
    0.0000    0.0000    0.0000 H   0  0  0  0  0  0  0  0  0  0  0  0
    0.0000    0.0000    0.0000 H   0  0  0  0  0  0  0  0  0  0  0  0
    0.0000    0.0000    0.0000 H   0  0  0  0  0  0  0  0  0  0  0  0
   10.8195    5.1669   10.4427 S   0  0  0  0  0  0  0  0  0  0  0  0
   11.1699    6.1352    8.9365 C   0  0  0  0  0  0  0  0  0  0  0  0
   12.2809    5.4908    8.1207 C   0  0  0  0  0  0  0  0  0  0  0  0
   10.2223    6.1939    8.3797 H   0  0  0  0  0  0  0  0  0  0  0  0
   11.5399    7.1414    9.2306 H   0  0  0  0  0  0  0  0  0  0  0  0
   12.9352    6.2583    7.6824 H   0  0  0  0  0  0  0  0  0  0  0  0
   12.8323    4.8314    8.8313 H   0  0  0  0  0  0  0  0  0  0  0  0
   11.8994    4.8388    7.3201 H   0  0  0  0  0  0  0  0  0  0  0  0
  1  3  2  0
  1  4  1  0
  2  4  1  0
  1  5  1  0
  2  6  1  0
  5  6  1  0
  6  7  2  3
  5  8  1  0
  4 10  1  0
 10 11  2  0
 11 12  1  0
 12 13  2  0
 13 14  1  0
 10 15  1  0
 14 15  2  0
  9 16  2  0
  9 17  1  0
 14 18  1  0
 17 18  2  0
 18 19  1  0
 16 20  1  0
 19 20  2  0
  2 21  1  0
  7 22  1  0
  8 23  1  0
  8 24  1  0
  8 25  1  0
 11 26  1  0
 12 27  1  0
 13 28  1  0
 15 29  1  0
 16 30  1  0
 17 31  1  0
 19 32  1  0
 20 33  1  0
 34 35  1  0
 35 36  1  0
 35 37  1  0
 35 38  1  0
 36 39  1  0
 36 40  1  0
 36 41  1  0
  4 34  1  6
M  END
>  <attachment_point>  (480) 
21

>  <score>  (480) 
<NA>

$$$$
4djw
     RDKit          3D

 51 53  0  0  0  0  0  0  0  0999 V2000
   22.4950   11.8750   22.5810 C   0  0  0  0  0  0  0  0  0  0  0  0
   22.5380    9.4930   22.4640 N   0  0  0  0  0  0  0  0  0  0  0  0
   22.3600   13.0630   22.3480 O   0  0  0  0  0  0  0  0  0  0  0  0
   22.3390   10.6680   21.5610 C   0  0  2  0  0  0  0  0  0  0  0  0
   22.7860   11.3350   23.8120 N   0  0  0  0  0  0  0  0  0  0  0  0
   22.7800    9.9140   23.7010 C   0  0  0  0  0  0  0  0  0  0  0  0
   22.9970    9.1110   24.7490 N   0  0  0  0  0  0  0  0  0  0  0  0
   23.0220   12.1410   25.0180 C   0  0  0  0  0  0  0  0  0  0  0  0
   29.1260    9.8230   21.7090 N   0  0  0  0  0  0  0  0  0  0  0  0
   23.4880   10.6920   20.5300 C   0  0  0  0  0  0  0  0  0  0  0  0
   23.2110   10.7890   19.1730 C   0  0  0  0  0  0  0  0  0  0  0  0
   24.2350   10.8650   18.2430 C   0  0  0  0  0  0  0  0  0  0  0  0
   25.5500   10.8410   18.6560 C   0  0  0  0  0  0  0  0  0  0  0  0
   25.8710   10.7460   20.0070 C   0  0  0  0  0  0  0  0  0  0  0  0
   24.8260   10.6610   20.9430 C   0  0  0  0  0  0  0  0  0  0  0  0
   29.8540   10.9130   21.4510 C   0  0  0  0  0  0  0  0  0  0  0  0
   27.8830    9.7800   21.2080 C   0  0  0  0  0  0  0  0  0  0  0  0
   27.3000   10.8010   20.4650 C   0  0  0  0  0  0  0  0  0  0  0  0
   28.0930   11.9190   20.2200 C   0  0  0  0  0  0  0  0  0  0  0  0
   29.3850   11.9780   20.7130 C   0  0  0  0  0  0  0  0  0  0  0  0
    0.0000    0.0000    0.0000 H   0  0  0  0  0  0  0  0  0  0  0  0
    0.0000    0.0000    0.0000 H   0  0  0  0  0  0  0  0  0  0  0  0
    0.0000    0.0000    0.0000 H   0  0  0  0  0  0  0  0  0  0  0  0
    0.0000    0.0000    0.0000 H   0  0  0  0  0  0  0  0  0  0  0  0
    0.0000    0.0000    0.0000 H   0  0  0  0  0  0  0  0  0  0  0  0
    0.0000    0.0000    0.0000 H   0  0  0  0  0  0  0  0  0  0  0  0
    0.0000    0.0000    0.0000 H   0  0  0  0  0  0  0  0  0  0  0  0
    0.0000    0.0000    0.0000 H   0  0  0  0  0  0  0  0  0  0  0  0
    0.0000    0.0000    0.0000 H   0  0  0  0  0  0  0  0  0  0  0  0
    0.0000    0.0000    0.0000 H   0  0  0  0  0  0  0  0  0  0  0  0
    0.0000    0.0000    0.0000 H   0  0  0  0  0  0  0  0  0  0  0  0
    0.0000    0.0000    0.0000 H   0  0  0  0  0  0  0  0  0  0  0  0
    0.0000    0.0000    0.0000 H   0  0  0  0  0  0  0  0  0  0  0  0
   10.8904    5.2007   10.5111 C   0  0  0  0  0  0  0  0  0  0  0  0
   11.1311    3.6929   10.3287 C   0  0  0  0  0  0  0  0  0  0  0  0
   10.9625    3.0361   11.6637 C   0  0  0  0  0  0  0  0  0  0  0  0
   11.1616    1.5661   11.6917 C   0  0  0  0  0  0  0  0  0  0  0  0
   10.2107    0.8387   10.8518 C   0  0  0  0  0  0  0  0  0  0  0  0
    9.2992    1.4217   10.2487 O   0  0  0  0  0  0  0  0  0  0  0  0
   10.2995   -0.5998   10.6928 N   0  0  0  0  0  0  0  0  0  0  0  0
    9.4196   -1.2514    9.9189 O   0  0  0  0  0  0  0  0  0  0  0  0
    9.8757    5.3127   10.9186 H   0  0  0  0  0  0  0  0  0  0  0  0
   11.0098    5.6850    9.5181 H   0  0  0  0  0  0  0  0  0  0  0  0
   12.1879    3.6346    9.9602 H   0  0  0  0  0  0  0  0  0  0  0  0
   10.4170    3.2797    9.5997 H   0  0  0  0  0  0  0  0  0  0  0  0
   11.6380    3.5043   12.4331 H   0  0  0  0  0  0  0  0  0  0  0  0
    9.9301    3.2416   12.0771 H   0  0  0  0  0  0  0  0  0  0  0  0
   11.0710    1.2523   12.7694 H   0  0  0  0  0  0  0  0  0  0  0  0
   12.2036    1.3442   11.3261 H   0  0  0  0  0  0  0  0  0  0  0  0
   11.0766   -1.0586   11.2130 H   0  0  0  0  0  0  0  0  0  0  0  0
    9.8791   -2.0013    9.4728 H   0  0  0  0  0  0  0  0  0  0  0  0
  1  3  2  0
  1  4  1  0
  2  4  1  0
  1  5  1  0
  2  6  1  0
  5  6  1  0
  6  7  2  3
  5  8  1  0
  4 10  1  0
 10 11  2  0
 11 12  1  0
 12 13  2  0
 13 14  1  0
 10 15  1  0
 14 15  2  0
  9 16  2  0
  9 17  1  0
 14 18  1  0
 17 18  2  0
 18 19  1  0
 16 20  1  0
 19 20  2  0
  2 21  1  0
  7 22  1  0
  8 23  1  0
  8 24  1  0
  8 25  1  0
 11 26  1  0
 12 27  1  0
 13 28  1  0
 15 29  1  0
 16 30  1  0
 17 31  1  0
 19 32  1  0
 20 33  1  0
 34 35  1  0
 35 36  1  0
 36 37  1  0
 37 38  1  0
 38 39  2  0
 38 40  1  0
 40 41  1  0
 34 42  1  0
 34 43  1  0
 35 44  1  0
 35 45  1  0
 36 46  1  0
 36 47  1  0
 37 48  1  0
 37 49  1  0
 40 50  1  0
 41 51  1  0
  4 34  1  6
M  END
>  <attachment_point>  (481) 
21

>  <score>  (481) 
<NA>

$$$$
4djw
     RDKit          3D

 45 48  0  0  0  0  0  0  0  0999 V2000
   22.4950   11.8750   22.5810 C   0  0  0  0  0  0  0  0  0  0  0  0
   22.5380    9.4930   22.4640 N   0  0  0  0  0  0  0  0  0  0  0  0
   22.3600   13.0630   22.3480 O   0  0  0  0  0  0  0  0  0  0  0  0
   22.3390   10.6680   21.5610 C   0  0  2  0  0  0  0  0  0  0  0  0
   22.7860   11.3350   23.8120 N   0  0  0  0  0  0  0  0  0  0  0  0
   22.7800    9.9140   23.7010 C   0  0  0  0  0  0  0  0  0  0  0  0
   22.9970    9.1110   24.7490 N   0  0  0  0  0  0  0  0  0  0  0  0
   23.0220   12.1410   25.0180 C   0  0  0  0  0  0  0  0  0  0  0  0
   29.1260    9.8230   21.7090 N   0  0  0  0  0  0  0  0  0  0  0  0
   23.4880   10.6920   20.5300 C   0  0  0  0  0  0  0  0  0  0  0  0
   23.2110   10.7890   19.1730 C   0  0  0  0  0  0  0  0  0  0  0  0
   24.2350   10.8650   18.2430 C   0  0  0  0  0  0  0  0  0  0  0  0
   25.5500   10.8410   18.6560 C   0  0  0  0  0  0  0  0  0  0  0  0
   25.8710   10.7460   20.0070 C   0  0  0  0  0  0  0  0  0  0  0  0
   24.8260   10.6610   20.9430 C   0  0  0  0  0  0  0  0  0  0  0  0
   29.8540   10.9130   21.4510 C   0  0  0  0  0  0  0  0  0  0  0  0
   27.8830    9.7800   21.2080 C   0  0  0  0  0  0  0  0  0  0  0  0
   27.3000   10.8010   20.4650 C   0  0  0  0  0  0  0  0  0  0  0  0
   28.0930   11.9190   20.2200 C   0  0  0  0  0  0  0  0  0  0  0  0
   29.3850   11.9780   20.7130 C   0  0  0  0  0  0  0  0  0  0  0  0
    0.0000    0.0000    0.0000 H   0  0  0  0  0  0  0  0  0  0  0  0
    0.0000    0.0000    0.0000 H   0  0  0  0  0  0  0  0  0  0  0  0
    0.0000    0.0000    0.0000 H   0  0  0  0  0  0  0  0  0  0  0  0
    0.0000    0.0000    0.0000 H   0  0  0  0  0  0  0  0  0  0  0  0
    0.0000    0.0000    0.0000 H   0  0  0  0  0  0  0  0  0  0  0  0
    0.0000    0.0000    0.0000 H   0  0  0  0  0  0  0  0  0  0  0  0
    0.0000    0.0000    0.0000 H   0  0  0  0  0  0  0  0  0  0  0  0
    0.0000    0.0000    0.0000 H   0  0  0  0  0  0  0  0  0  0  0  0
    0.0000    0.0000    0.0000 H   0  0  0  0  0  0  0  0  0  0  0  0
    0.0000    0.0000    0.0000 H   0  0  0  0  0  0  0  0  0  0  0  0
    0.0000    0.0000    0.0000 H   0  0  0  0  0  0  0  0  0  0  0  0
    0.0000    0.0000    0.0000 H   0  0  0  0  0  0  0  0  0  0  0  0
    0.0000    0.0000    0.0000 H   0  0  0  0  0  0  0  0  0  0  0  0
   10.8851    5.1982   10.5060 N   0  0  0  0  0  0  0  0  0  0  0  0
   10.8214    3.8326   10.1383 C   0  0  0  0  0  0  0  0  0  0  0  0
   11.6027    2.9840   10.6122 O   0  0  0  0  0  0  0  0  0  0  0  0
    9.7934    3.4018    9.1598 C   0  0  0  0  0  0  0  0  0  0  0  0
    8.8566    4.1700    8.5344 C   0  0  0  0  0  0  0  0  0  0  0  0
    8.0200    3.5460    7.6754 C   0  0  0  0  0  0  0  0  0  0  0  0
    8.1902    2.1982    7.5119 C   0  0  0  0  0  0  0  0  0  0  0  0
    9.4942    1.8406    8.5458 S   0  0  0  0  0  0  0  0  0  0  0  0
   10.2084    5.8669   10.0802 H   0  0  0  0  0  0  0  0  0  0  0  0
    8.7806    5.2675    8.7209 H   0  0  0  0  0  0  0  0  0  0  0  0
    7.2047    4.0474    7.0927 H   0  0  0  0  0  0  0  0  0  0  0  0
    7.6132    1.5156    6.8616 H   0  0  0  0  0  0  0  0  0  0  0  0
  1  3  2  0
  1  4  1  0
  2  4  1  0
  1  5  1  0
  2  6  1  0
  5  6  1  0
  6  7  2  3
  5  8  1  0
  4 10  1  0
 10 11  2  0
 11 12  1  0
 12 13  2  0
 13 14  1  0
 10 15  1  0
 14 15  2  0
  9 16  2  0
  9 17  1  0
 14 18  1  0
 17 18  2  0
 18 19  1  0
 16 20  1  0
 19 20  2  0
  2 21  1  0
  7 22  1  0
  8 23  1  0
  8 24  1  0
  8 25  1  0
 11 26  1  0
 12 27  1  0
 13 28  1  0
 15 29  1  0
 16 30  1  0
 17 31  1  0
 19 32  1  0
 20 33  1  0
 34 35  1  0
 35 36  2  0
 35 37  1  0
 37 38  2  0
 38 39  1  0
 39 40  2  0
 40 41  1  0
 41 37  1  0
 34 42  1  0
 38 43  1  0
 39 44  1  0
 40 45  1  0
  4 34  1  6
M  END
>  <attachment_point>  (482) 
21

>  <score>  (482) 
<NA>

$$$$
4djw
     RDKit          3D

 48 52  0  0  0  0  0  0  0  0999 V2000
   22.4950   11.8750   22.5810 C   0  0  0  0  0  0  0  0  0  0  0  0
   22.5380    9.4930   22.4640 N   0  0  0  0  0  0  0  0  0  0  0  0
   22.3600   13.0630   22.3480 O   0  0  0  0  0  0  0  0  0  0  0  0
   22.3390   10.6680   21.5610 C   0  0  2  0  0  0  0  0  0  0  0  0
   22.7860   11.3350   23.8120 N   0  0  0  0  0  0  0  0  0  0  0  0
   22.7800    9.9140   23.7010 C   0  0  0  0  0  0  0  0  0  0  0  0
   22.9970    9.1110   24.7490 N   0  0  0  0  0  0  0  0  0  0  0  0
   23.0220   12.1410   25.0180 C   0  0  0  0  0  0  0  0  0  0  0  0
   29.1260    9.8230   21.7090 N   0  0  0  0  0  0  0  0  0  0  0  0
   23.4880   10.6920   20.5300 C   0  0  0  0  0  0  0  0  0  0  0  0
   23.2110   10.7890   19.1730 C   0  0  0  0  0  0  0  0  0  0  0  0
   24.2350   10.8650   18.2430 C   0  0  0  0  0  0  0  0  0  0  0  0
   25.5500   10.8410   18.6560 C   0  0  0  0  0  0  0  0  0  0  0  0
   25.8710   10.7460   20.0070 C   0  0  0  0  0  0  0  0  0  0  0  0
   24.8260   10.6610   20.9430 C   0  0  0  0  0  0  0  0  0  0  0  0
   29.8540   10.9130   21.4510 C   0  0  0  0  0  0  0  0  0  0  0  0
   27.8830    9.7800   21.2080 C   0  0  0  0  0  0  0  0  0  0  0  0
   27.3000   10.8010   20.4650 C   0  0  0  0  0  0  0  0  0  0  0  0
   28.0930   11.9190   20.2200 C   0  0  0  0  0  0  0  0  0  0  0  0
   29.3850   11.9780   20.7130 C   0  0  0  0  0  0  0  0  0  0  0  0
    0.0000    0.0000    0.0000 H   0  0  0  0  0  0  0  0  0  0  0  0
    0.0000    0.0000    0.0000 H   0  0  0  0  0  0  0  0  0  0  0  0
    0.0000    0.0000    0.0000 H   0  0  0  0  0  0  0  0  0  0  0  0
    0.0000    0.0000    0.0000 H   0  0  0  0  0  0  0  0  0  0  0  0
    0.0000    0.0000    0.0000 H   0  0  0  0  0  0  0  0  0  0  0  0
    0.0000    0.0000    0.0000 H   0  0  0  0  0  0  0  0  0  0  0  0
    0.0000    0.0000    0.0000 H   0  0  0  0  0  0  0  0  0  0  0  0
    0.0000    0.0000    0.0000 H   0  0  0  0  0  0  0  0  0  0  0  0
    0.0000    0.0000    0.0000 H   0  0  0  0  0  0  0  0  0  0  0  0
    0.0000    0.0000    0.0000 H   0  0  0  0  0  0  0  0  0  0  0  0
    0.0000    0.0000    0.0000 H   0  0  0  0  0  0  0  0  0  0  0  0
    0.0000    0.0000    0.0000 H   0  0  0  0  0  0  0  0  0  0  0  0
    0.0000    0.0000    0.0000 H   0  0  0  0  0  0  0  0  0  0  0  0
   10.8408    5.1770   10.4632 C   0  0  0  0  0  0  0  0  0  0  0  0
    9.5449    5.4513   10.7899 C   0  0  0  0  0  0  0  0  0  0  0  0
    8.5554    5.0121    9.8938 C   0  0  0  0  0  0  0  0  0  0  0  0
    8.9704    4.3362    8.7507 C   0  0  0  0  0  0  0  0  0  0  0  0
   10.2965    4.0834    8.4657 C   0  0  0  0  0  0  0  0  0  0  0  0
   10.9239    3.4662    7.4521 N   0  0  0  0  0  0  0  0  0  0  0  0
   12.2579    3.4716    7.6241 C   0  0  0  0  0  0  0  0  0  0  0  0
   12.4839    4.1313    8.8166 C   0  0  0  0  0  0  0  0  0  0  0  0
   11.2815    4.5190    9.3548 C   0  0  0  0  0  0  0  0  0  0  0  0
    9.2694    5.9803   11.6905 H   0  0  0  0  0  0  0  0  0  0  0  0
    7.5047    5.1897   10.0794 H   0  0  0  0  0  0  0  0  0  0  0  0
    8.1670    4.0140    8.0839 H   0  0  0  0  0  0  0  0  0  0  0  0
   10.4330    3.0319    6.6254 H   0  0  0  0  0  0  0  0  0  0  0  0
   13.0101    3.0432    6.9593 H   0  0  0  0  0  0  0  0  0  0  0  0
   13.4550    4.3154    9.2599 H   0  0  0  0  0  0  0  0  0  0  0  0
  1  3  2  0
  1  4  1  0
  2  4  1  0
  1  5  1  0
  2  6  1  0
  5  6  1  0
  6  7  2  3
  5  8  1  0
  4 10  1  6
 10 11  2  0
 11 12  1  0
 12 13  2  0
 13 14  1  0
 10 15  1  0
 14 15  2  0
  9 16  2  0
  9 17  1  0
 14 18  1  0
 17 18  2  0
 18 19  1  0
 16 20  1  0
 19 20  2  0
  2 21  1  0
  7 22  1  0
  8 23  1  0
  8 24  1  0
  8 25  1  0
 11 26  1  0
 12 27  1  0
 13 28  1  0
 15 29  1  0
 16 30  1  0
 17 31  1  0
 19 32  1  0
 20 33  1  0
 34 35  2  0
 35 36  1  0
 36 37  2  0
 37 38  1  0
 38 39  1  0
 39 40  1  0
 40 41  2  0
 41 42  1  0
 42 34  1  0
 42 38  2  0
 35 43  1  0
 36 44  1  0
 37 45  1  0
 39 46  1  0
 40 47  1  0
 41 48  1  0
  4 34  1  0
M  END
>  <attachment_point>  (483) 
21

>  <score>  (483) 
<NA>

$$$$
4djw
     RDKit          3D

 48 51  0  0  0  0  0  0  0  0999 V2000
   22.4950   11.8750   22.5810 C   0  0  0  0  0  0  0  0  0  0  0  0
   22.5380    9.4930   22.4640 N   0  0  0  0  0  0  0  0  0  0  0  0
   22.3600   13.0630   22.3480 O   0  0  0  0  0  0  0  0  0  0  0  0
   22.3390   10.6680   21.5610 C   0  0  2  0  0  0  0  0  0  0  0  0
   22.7860   11.3350   23.8120 N   0  0  0  0  0  0  0  0  0  0  0  0
   22.7800    9.9140   23.7010 C   0  0  0  0  0  0  0  0  0  0  0  0
   22.9970    9.1110   24.7490 N   0  0  0  0  0  0  0  0  0  0  0  0
   23.0220   12.1410   25.0180 C   0  0  0  0  0  0  0  0  0  0  0  0
   29.1260    9.8230   21.7090 N   0  0  0  0  0  0  0  0  0  0  0  0
   23.4880   10.6920   20.5300 C   0  0  0  0  0  0  0  0  0  0  0  0
   23.2110   10.7890   19.1730 C   0  0  0  0  0  0  0  0  0  0  0  0
   24.2350   10.8650   18.2430 C   0  0  0  0  0  0  0  0  0  0  0  0
   25.5500   10.8410   18.6560 C   0  0  0  0  0  0  0  0  0  0  0  0
   25.8710   10.7460   20.0070 C   0  0  0  0  0  0  0  0  0  0  0  0
   24.8260   10.6610   20.9430 C   0  0  0  0  0  0  0  0  0  0  0  0
   29.8540   10.9130   21.4510 C   0  0  0  0  0  0  0  0  0  0  0  0
   27.8830    9.7800   21.2080 C   0  0  0  0  0  0  0  0  0  0  0  0
   27.3000   10.8010   20.4650 C   0  0  0  0  0  0  0  0  0  0  0  0
   28.0930   11.9190   20.2200 C   0  0  0  0  0  0  0  0  0  0  0  0
   29.3850   11.9780   20.7130 C   0  0  0  0  0  0  0  0  0  0  0  0
    0.0000    0.0000    0.0000 H   0  0  0  0  0  0  0  0  0  0  0  0
    0.0000    0.0000    0.0000 H   0  0  0  0  0  0  0  0  0  0  0  0
    0.0000    0.0000    0.0000 H   0  0  0  0  0  0  0  0  0  0  0  0
    0.0000    0.0000    0.0000 H   0  0  0  0  0  0  0  0  0  0  0  0
    0.0000    0.0000    0.0000 H   0  0  0  0  0  0  0  0  0  0  0  0
    0.0000    0.0000    0.0000 H   0  0  0  0  0  0  0  0  0  0  0  0
    0.0000    0.0000    0.0000 H   0  0  0  0  0  0  0  0  0  0  0  0
    0.0000    0.0000    0.0000 H   0  0  0  0  0  0  0  0  0  0  0  0
    0.0000    0.0000    0.0000 H   0  0  0  0  0  0  0  0  0  0  0  0
    0.0000    0.0000    0.0000 H   0  0  0  0  0  0  0  0  0  0  0  0
    0.0000    0.0000    0.0000 H   0  0  0  0  0  0  0  0  0  0  0  0
    0.0000    0.0000    0.0000 H   0  0  0  0  0  0  0  0  0  0  0  0
    0.0000    0.0000    0.0000 H   0  0  0  0  0  0  0  0  0  0  0  0
   10.8536    5.1831   10.4756 C   0  0  0  0  0  0  0  0  0  0  0  0
   10.6866    3.9885   10.4129 O   0  0  0  0  0  0  0  0  0  0  0  0
   10.1699    6.1063    9.7053 N   0  0  0  0  0  0  0  0  0  0  0  0
    9.1603    5.9507    8.7157 C   0  0  0  0  0  0  0  0  0  0  0  0
    7.9190    5.3688    9.2316 C   0  0  0  0  0  0  0  0  0  0  0  0
    7.9311    3.9602    9.7740 C   0  0  0  0  0  0  0  0  0  0  0  0
    7.0133    4.4137    8.6299 C   0  0  0  0  0  0  0  0  0  0  0  0
   10.4635    7.1406    9.8988 H   0  0  0  0  0  0  0  0  0  0  0  0
    9.5800    5.3297    7.8546 H   0  0  0  0  0  0  0  0  0  0  0  0
    8.9476    6.9739    8.2759 H   0  0  0  0  0  0  0  0  0  0  0  0
    7.3996    6.1385    9.9489 H   0  0  0  0  0  0  0  0  0  0  0  0
    8.5713    3.1509    9.4532 H   0  0  0  0  0  0  0  0  0  0  0  0
    7.4775    3.8154   10.7773 H   0  0  0  0  0  0  0  0  0  0  0  0
    7.1456    3.9704    7.6298 H   0  0  0  0  0  0  0  0  0  0  0  0
    5.9465    4.4401    8.9316 H   0  0  0  0  0  0  0  0  0  0  0  0
  1  3  2  0
  1  4  1  0
  2  4  1  0
  1  5  1  0
  2  6  1  0
  5  6  1  0
  6  7  2  3
  5  8  1  0
  4 10  1  0
 10 11  2  0
 11 12  1  0
 12 13  2  0
 13 14  1  0
 10 15  1  0
 14 15  2  0
  9 16  2  0
  9 17  1  0
 14 18  1  0
 17 18  2  0
 18 19  1  0
 16 20  1  0
 19 20  2  0
  2 21  1  0
  7 22  1  0
  8 23  1  0
  8 24  1  0
  8 25  1  0
 11 26  1  0
 12 27  1  0
 13 28  1  0
 15 29  1  0
 16 30  1  0
 17 31  1  0
 19 32  1  0
 20 33  1  0
 34 35  2  0
 34 36  1  0
 36 37  1  0
 37 38  1  0
 38 39  1  0
 39 40  1  0
 40 38  1  0
 36 41  1  0
 37 42  1  0
 37 43  1  0
 38 44  1  0
 39 45  1  0
 39 46  1  0
 40 47  1  0
 40 48  1  0
  4 34  1  6
M  END
>  <attachment_point>  (484) 
21

>  <score>  (484) 
<NA>

$$$$
4djw
     RDKit          3D

 47 51  0  0  0  0  0  0  0  0999 V2000
   22.4950   11.8750   22.5810 C   0  0  0  0  0  0  0  0  0  0  0  0
   22.5380    9.4930   22.4640 N   0  0  0  0  0  0  0  0  0  0  0  0
   22.3600   13.0630   22.3480 O   0  0  0  0  0  0  0  0  0  0  0  0
   22.3390   10.6680   21.5610 C   0  0  2  0  0  0  0  0  0  0  0  0
   22.7860   11.3350   23.8120 N   0  0  0  0  0  0  0  0  0  0  0  0
   22.7800    9.9140   23.7010 C   0  0  0  0  0  0  0  0  0  0  0  0
   22.9970    9.1110   24.7490 N   0  0  0  0  0  0  0  0  0  0  0  0
   23.0220   12.1410   25.0180 C   0  0  0  0  0  0  0  0  0  0  0  0
   29.1260    9.8230   21.7090 N   0  0  0  0  0  0  0  0  0  0  0  0
   23.4880   10.6920   20.5300 C   0  0  0  0  0  0  0  0  0  0  0  0
   23.2110   10.7890   19.1730 C   0  0  0  0  0  0  0  0  0  0  0  0
   24.2350   10.8650   18.2430 C   0  0  0  0  0  0  0  0  0  0  0  0
   25.5500   10.8410   18.6560 C   0  0  0  0  0  0  0  0  0  0  0  0
   25.8710   10.7460   20.0070 C   0  0  0  0  0  0  0  0  0  0  0  0
   24.8260   10.6610   20.9430 C   0  0  0  0  0  0  0  0  0  0  0  0
   29.8540   10.9130   21.4510 C   0  0  0  0  0  0  0  0  0  0  0  0
   27.8830    9.7800   21.2080 C   0  0  0  0  0  0  0  0  0  0  0  0
   27.3000   10.8010   20.4650 C   0  0  0  0  0  0  0  0  0  0  0  0
   28.0930   11.9190   20.2200 C   0  0  0  0  0  0  0  0  0  0  0  0
   29.3850   11.9780   20.7130 C   0  0  0  0  0  0  0  0  0  0  0  0
    0.0000    0.0000    0.0000 H   0  0  0  0  0  0  0  0  0  0  0  0
    0.0000    0.0000    0.0000 H   0  0  0  0  0  0  0  0  0  0  0  0
    0.0000    0.0000    0.0000 H   0  0  0  0  0  0  0  0  0  0  0  0
    0.0000    0.0000    0.0000 H   0  0  0  0  0  0  0  0  0  0  0  0
    0.0000    0.0000    0.0000 H   0  0  0  0  0  0  0  0  0  0  0  0
    0.0000    0.0000    0.0000 H   0  0  0  0  0  0  0  0  0  0  0  0
    0.0000    0.0000    0.0000 H   0  0  0  0  0  0  0  0  0  0  0  0
    0.0000    0.0000    0.0000 H   0  0  0  0  0  0  0  0  0  0  0  0
    0.0000    0.0000    0.0000 H   0  0  0  0  0  0  0  0  0  0  0  0
    0.0000    0.0000    0.0000 H   0  0  0  0  0  0  0  0  0  0  0  0
    0.0000    0.0000    0.0000 H   0  0  0  0  0  0  0  0  0  0  0  0
    0.0000    0.0000    0.0000 H   0  0  0  0  0  0  0  0  0  0  0  0
    0.0000    0.0000    0.0000 H   0  0  0  0  0  0  0  0  0  0  0  0
   10.8590    5.1857   10.4808 C   0  0  0  0  0  0  0  0  0  0  0  0
   11.3241    4.5026    9.3990 C   0  0  0  0  0  0  0  0  0  0  0  0
    9.8902    4.1351    8.5514 S   0  0  0  0  0  0  0  0  0  0  0  0
    8.7514    4.8580    9.5937 C   0  0  0  0  0  0  0  0  0  0  0  0
    7.3551    4.9858    9.5894 C   0  0  0  0  0  0  0  0  0  0  0  0
    6.6881    5.6445   10.5979 C   0  0  0  0  0  0  0  0  0  0  0  0
    7.5041    6.1593   11.5970 C   0  0  0  0  0  0  0  0  0  0  0  0
    8.8511    6.0495   11.6242 C   0  0  0  0  0  0  0  0  0  0  0  0
    9.5253    5.3738   10.5882 C   0  0  0  0  0  0  0  0  0  0  0  0
   12.3784    4.2583    9.1525 H   0  0  0  0  0  0  0  0  0  0  0  0
    6.7964    4.5612    8.7832 H   0  0  0  0  0  0  0  0  0  0  0  0
    5.6156    5.7573   10.6192 H   0  0  0  0  0  0  0  0  0  0  0  0
    6.9678    6.6830   12.3980 H   0  0  0  0  0  0  0  0  0  0  0  0
    9.3680    6.4935   12.4565 H   0  0  0  0  0  0  0  0  0  0  0  0
  1  3  2  0
  1  4  1  0
  2  4  1  0
  1  5  1  0
  2  6  1  0
  5  6  1  0
  6  7  2  3
  5  8  1  0
  4 10  1  6
 10 11  2  0
 11 12  1  0
 12 13  2  0
 13 14  1  0
 10 15  1  0
 14 15  2  0
  9 16  2  0
  9 17  1  0
 14 18  1  0
 17 18  2  0
 18 19  1  0
 16 20  1  0
 19 20  2  0
  2 21  1  0
  7 22  1  0
  8 23  1  0
  8 24  1  0
  8 25  1  0
 11 26  1  0
 12 27  1  0
 13 28  1  0
 15 29  1  0
 16 30  1  0
 17 31  1  0
 19 32  1  0
 20 33  1  0
 34 35  2  0
 35 36  1  0
 36 37  1  0
 37 38  2  0
 38 39  1  0
 39 40  2  0
 40 41  1  0
 41 42  2  0
 42 34  1  0
 42 37  1  0
 35 43  1  0
 38 44  1  0
 39 45  1  0
 40 46  1  0
 41 47  1  0
  4 34  1  0
M  END
>  <attachment_point>  (485) 
21

>  <score>  (485) 
<NA>

$$$$
4djw
     RDKit          3D

 55 58  0  0  0  0  0  0  0  0999 V2000
   22.4950   11.8750   22.5810 C   0  0  0  0  0  0  0  0  0  0  0  0
   22.5380    9.4930   22.4640 N   0  0  0  0  0  0  0  0  0  0  0  0
   22.3600   13.0630   22.3480 O   0  0  0  0  0  0  0  0  0  0  0  0
   22.3390   10.6680   21.5610 C   0  0  2  0  0  0  0  0  0  0  0  0
   22.7860   11.3350   23.8120 N   0  0  0  0  0  0  0  0  0  0  0  0
   22.7800    9.9140   23.7010 C   0  0  0  0  0  0  0  0  0  0  0  0
   22.9970    9.1110   24.7490 N   0  0  0  0  0  0  0  0  0  0  0  0
   23.0220   12.1410   25.0180 C   0  0  0  0  0  0  0  0  0  0  0  0
   29.1260    9.8230   21.7090 N   0  0  0  0  0  0  0  0  0  0  0  0
   23.4880   10.6920   20.5300 C   0  0  0  0  0  0  0  0  0  0  0  0
   23.2110   10.7890   19.1730 C   0  0  0  0  0  0  0  0  0  0  0  0
   24.2350   10.8650   18.2430 C   0  0  0  0  0  0  0  0  0  0  0  0
   25.5500   10.8410   18.6560 C   0  0  0  0  0  0  0  0  0  0  0  0
   25.8710   10.7460   20.0070 C   0  0  0  0  0  0  0  0  0  0  0  0
   24.8260   10.6610   20.9430 C   0  0  0  0  0  0  0  0  0  0  0  0
   29.8540   10.9130   21.4510 C   0  0  0  0  0  0  0  0  0  0  0  0
   27.8830    9.7800   21.2080 C   0  0  0  0  0  0  0  0  0  0  0  0
   27.3000   10.8010   20.4650 C   0  0  0  0  0  0  0  0  0  0  0  0
   28.0930   11.9190   20.2200 C   0  0  0  0  0  0  0  0  0  0  0  0
   29.3850   11.9780   20.7130 C   0  0  0  0  0  0  0  0  0  0  0  0
    0.0000    0.0000    0.0000 H   0  0  0  0  0  0  0  0  0  0  0  0
    0.0000    0.0000    0.0000 H   0  0  0  0  0  0  0  0  0  0  0  0
    0.0000    0.0000    0.0000 H   0  0  0  0  0  0  0  0  0  0  0  0
    0.0000    0.0000    0.0000 H   0  0  0  0  0  0  0  0  0  0  0  0
    0.0000    0.0000    0.0000 H   0  0  0  0  0  0  0  0  0  0  0  0
    0.0000    0.0000    0.0000 H   0  0  0  0  0  0  0  0  0  0  0  0
    0.0000    0.0000    0.0000 H   0  0  0  0  0  0  0  0  0  0  0  0
    0.0000    0.0000    0.0000 H   0  0  0  0  0  0  0  0  0  0  0  0
    0.0000    0.0000    0.0000 H   0  0  0  0  0  0  0  0  0  0  0  0
    0.0000    0.0000    0.0000 H   0  0  0  0  0  0  0  0  0  0  0  0
    0.0000    0.0000    0.0000 H   0  0  0  0  0  0  0  0  0  0  0  0
    0.0000    0.0000    0.0000 H   0  0  0  0  0  0  0  0  0  0  0  0
    0.0000    0.0000    0.0000 H   0  0  0  0  0  0  0  0  0  0  0  0
   10.8697    5.1908   10.4912 C   0  0  0  0  0  0  0  0  0  0  0  0
   10.1807    6.3366    9.8421 C   0  0  0  0  0  0  0  0  0  0  0  0
    9.1720    5.8605    8.9039 N   0  0  0  0  0  0  0  0  0  0  0  0
    8.7765    7.0055    8.0402 C   0  0  0  0  0  0  0  0  0  0  0  0
    7.5487    6.4181    7.3939 C   0  0  0  0  0  0  0  0  0  0  0  0
    6.9354    5.4936    8.4245 C   0  0  0  0  0  0  0  0  0  0  0  0
    7.9226    5.5722    9.5974 C   0  0  1  0  0  0  0  0  0  0  0  0
    7.8379    4.3098   10.3416 C   0  0  0  0  0  0  0  0  0  0  0  0
   10.2282    4.4361   10.9031 H   0  0  0  0  0  0  0  0  0  0  0  0
   11.5302    4.6925    9.7165 H   0  0  0  0  0  0  0  0  0  0  0  0
   10.9311    6.9067    9.2236 H   0  0  0  0  0  0  0  0  0  0  0  0
    9.7335    7.0543   10.5689 H   0  0  0  0  0  0  0  0  0  0  0  0
    9.5934    7.2091    7.3299 H   0  0  0  0  0  0  0  0  0  0  0  0
    8.5673    7.8991    8.6193 H   0  0  0  0  0  0  0  0  0  0  0  0
    6.7919    7.1593    7.1275 H   0  0  0  0  0  0  0  0  0  0  0  0
    7.9032    5.8329    6.5224 H   0  0  0  0  0  0  0  0  0  0  0  0
    6.9043    4.4544    8.0524 H   0  0  0  0  0  0  0  0  0  0  0  0
    5.9249    5.8490    8.7291 H   0  0  0  0  0  0  0  0  0  0  0  0
    7.5948    6.4271   10.2123 H   0  0  0  0  0  0  0  0  0  0  0  0
    8.3441    3.4465    9.9036 H   0  0  0  0  0  0  0  0  0  0  0  0
    6.7367    4.0011   10.3089 H   0  0  0  0  0  0  0  0  0  0  0  0
    7.9953    4.4035   11.4590 H   0  0  0  0  0  0  0  0  0  0  0  0
  1  3  2  0
  1  4  1  0
  2  4  1  0
  1  5  1  0
  2  6  1  0
  5  6  1  0
  6  7  2  3
  5  8  1  0
  4 10  1  0
 10 11  2  0
 11 12  1  0
 12 13  2  0
 13 14  1  0
 10 15  1  0
 14 15  2  0
  9 16  2  0
  9 17  1  0
 14 18  1  0
 17 18  2  0
 18 19  1  0
 16 20  1  0
 19 20  2  0
  2 21  1  0
  7 22  1  0
  8 23  1  0
  8 24  1  0
  8 25  1  0
 11 26  1  0
 12 27  1  0
 13 28  1  0
 15 29  1  0
 16 30  1  0
 17 31  1  0
 19 32  1  0
 20 33  1  0
 34 35  1  0
 35 36  1  0
 36 37  1  0
 37 38  1  0
 38 39  1  0
 39 40  1  0
 40 41  1  0
 40 36  1  0
 34 42  1  0
 34 43  1  0
 35 44  1  0
 35 45  1  0
 37 46  1  0
 37 47  1  0
 38 48  1  0
 38 49  1  0
 39 50  1  0
 39 51  1  0
 40 52  1  1
 41 53  1  0
 41 54  1  0
 41 55  1  0
  4 34  1  6
M  END
>  <attachment_point>  (486) 
21

>  <score>  (486) 
<NA>

$$$$
4djw
     RDKit          3D

 52 55  0  0  0  0  0  0  0  0999 V2000
   22.4950   11.8750   22.5810 C   0  0  0  0  0  0  0  0  0  0  0  0
   22.5380    9.4930   22.4640 N   0  0  0  0  0  0  0  0  0  0  0  0
   22.3600   13.0630   22.3480 O   0  0  0  0  0  0  0  0  0  0  0  0
   22.3390   10.6680   21.5610 C   0  0  2  0  0  0  0  0  0  0  0  0
   22.7860   11.3350   23.8120 N   0  0  0  0  0  0  0  0  0  0  0  0
   22.7800    9.9140   23.7010 C   0  0  0  0  0  0  0  0  0  0  0  0
   22.9970    9.1110   24.7490 N   0  0  0  0  0  0  0  0  0  0  0  0
   23.0220   12.1410   25.0180 C   0  0  0  0  0  0  0  0  0  0  0  0
   29.1260    9.8230   21.7090 N   0  0  0  0  0  0  0  0  0  0  0  0
   23.4880   10.6920   20.5300 C   0  0  0  0  0  0  0  0  0  0  0  0
   23.2110   10.7890   19.1730 C   0  0  0  0  0  0  0  0  0  0  0  0
   24.2350   10.8650   18.2430 C   0  0  0  0  0  0  0  0  0  0  0  0
   25.5500   10.8410   18.6560 C   0  0  0  0  0  0  0  0  0  0  0  0
   25.8710   10.7460   20.0070 C   0  0  0  0  0  0  0  0  0  0  0  0
   24.8260   10.6610   20.9430 C   0  0  0  0  0  0  0  0  0  0  0  0
   29.8540   10.9130   21.4510 C   0  0  0  0  0  0  0  0  0  0  0  0
   27.8830    9.7800   21.2080 C   0  0  0  0  0  0  0  0  0  0  0  0
   27.3000   10.8010   20.4650 C   0  0  0  0  0  0  0  0  0  0  0  0
   28.0930   11.9190   20.2200 C   0  0  0  0  0  0  0  0  0  0  0  0
   29.3850   11.9780   20.7130 C   0  0  0  0  0  0  0  0  0  0  0  0
    0.0000    0.0000    0.0000 H   0  0  0  0  0  0  0  0  0  0  0  0
    0.0000    0.0000    0.0000 H   0  0  0  0  0  0  0  0  0  0  0  0
    0.0000    0.0000    0.0000 H   0  0  0  0  0  0  0  0  0  0  0  0
    0.0000    0.0000    0.0000 H   0  0  0  0  0  0  0  0  0  0  0  0
    0.0000    0.0000    0.0000 H   0  0  0  0  0  0  0  0  0  0  0  0
    0.0000    0.0000    0.0000 H   0  0  0  0  0  0  0  0  0  0  0  0
    0.0000    0.0000    0.0000 H   0  0  0  0  0  0  0  0  0  0  0  0
    0.0000    0.0000    0.0000 H   0  0  0  0  0  0  0  0  0  0  0  0
    0.0000    0.0000    0.0000 H   0  0  0  0  0  0  0  0  0  0  0  0
    0.0000    0.0000    0.0000 H   0  0  0  0  0  0  0  0  0  0  0  0
    0.0000    0.0000    0.0000 H   0  0  0  0  0  0  0  0  0  0  0  0
    0.0000    0.0000    0.0000 H   0  0  0  0  0  0  0  0  0  0  0  0
    0.0000    0.0000    0.0000 H   0  0  0  0  0  0  0  0  0  0  0  0
   10.8710    5.1915   10.4924 C   0  0  0  0  0  0  0  0  0  0  0  0
   11.3809    5.6858    9.2068 N   0  0  0  0  0  0  0  0  0  0  0  0
   12.6934    5.0906    9.0311 C   0  0  0  0  0  0  0  0  0  0  0  0
   13.3186    5.5164    7.7585 C   0  0  0  0  0  0  0  0  0  0  0  0
   13.1606    4.8371    6.5688 C   0  0  0  0  0  0  0  0  0  0  0  0
   13.7595    5.2624    5.3967 C   0  0  0  0  0  0  0  0  0  0  0  0
   14.5367    6.4022    5.4284 C   0  0  0  0  0  0  0  0  0  0  0  0
   14.7153    7.1060    6.6036 C   0  0  0  0  0  0  0  0  0  0  0  0
   14.1020    6.6504    7.7513 C   0  0  0  0  0  0  0  0  0  0  0  0
    9.9032    5.7081   10.6496 H   0  0  0  0  0  0  0  0  0  0  0  0
   10.7715    4.1076   10.4988 H   0  0  0  0  0  0  0  0  0  0  0  0
   11.4342    6.7153    9.1955 H   0  0  0  0  0  0  0  0  0  0  0  0
   12.6388    3.9903    9.0607 H   0  0  0  0  0  0  0  0  0  0  0  0
   13.3333    5.4558    9.8696 H   0  0  0  0  0  0  0  0  0  0  0  0
   12.5520    3.9461    6.5479 H   0  0  0  0  0  0  0  0  0  0  0  0
   13.6599    4.7582    4.4459 H   0  0  0  0  0  0  0  0  0  0  0  0
   15.0168    6.7568    4.5249 H   0  0  0  0  0  0  0  0  0  0  0  0
   15.3396    8.0139    6.6094 H   0  0  0  0  0  0  0  0  0  0  0  0
   14.2663    7.2329    8.6611 H   0  0  0  0  0  0  0  0  0  0  0  0
  1  3  2  0
  1  4  1  0
  2  4  1  0
  1  5  1  0
  2  6  1  0
  5  6  1  0
  6  7  2  3
  5  8  1  0
  4 10  1  0
 10 11  2  0
 11 12  1  0
 12 13  2  0
 13 14  1  0
 10 15  1  0
 14 15  2  0
  9 16  2  0
  9 17  1  0
 14 18  1  0
 17 18  2  0
 18 19  1  0
 16 20  1  0
 19 20  2  0
  2 21  1  0
  7 22  1  0
  8 23  1  0
  8 24  1  0
  8 25  1  0
 11 26  1  0
 12 27  1  0
 13 28  1  0
 15 29  1  0
 16 30  1  0
 17 31  1  0
 19 32  1  0
 20 33  1  0
 34 35  1  0
 35 36  1  0
 36 37  1  0
 37 38  2  0
 38 39  1  0
 39 40  2  0
 40 41  1  0
 41 42  2  0
 42 37  1  0
 34 43  1  0
 34 44  1  0
 35 45  1  0
 36 46  1  0
 36 47  1  0
 38 48  1  0
 39 49  1  0
 40 50  1  0
 41 51  1  0
 42 52  1  0
  4 34  1  6
M  END
>  <attachment_point>  (487) 
21

>  <score>  (487) 
<NA>

$$$$
4djw
     RDKit          3D

 47 50  0  0  0  0  0  0  0  0999 V2000
   22.4950   11.8750   22.5810 C   0  0  0  0  0  0  0  0  0  0  0  0
   22.5380    9.4930   22.4640 N   0  0  0  0  0  0  0  0  0  0  0  0
   22.3600   13.0630   22.3480 O   0  0  0  0  0  0  0  0  0  0  0  0
   22.3390   10.6680   21.5610 C   0  0  2  0  0  0  0  0  0  0  0  0
   22.7860   11.3350   23.8120 N   0  0  0  0  0  0  0  0  0  0  0  0
   22.7800    9.9140   23.7010 C   0  0  0  0  0  0  0  0  0  0  0  0
   22.9970    9.1110   24.7490 N   0  0  0  0  0  0  0  0  0  0  0  0
   23.0220   12.1410   25.0180 C   0  0  0  0  0  0  0  0  0  0  0  0
   29.1260    9.8230   21.7090 N   0  0  0  0  0  0  0  0  0  0  0  0
   23.4880   10.6920   20.5300 C   0  0  0  0  0  0  0  0  0  0  0  0
   23.2110   10.7890   19.1730 C   0  0  0  0  0  0  0  0  0  0  0  0
   24.2350   10.8650   18.2430 C   0  0  0  0  0  0  0  0  0  0  0  0
   25.5500   10.8410   18.6560 C   0  0  0  0  0  0  0  0  0  0  0  0
   25.8710   10.7460   20.0070 C   0  0  0  0  0  0  0  0  0  0  0  0
   24.8260   10.6610   20.9430 C   0  0  0  0  0  0  0  0  0  0  0  0
   29.8540   10.9130   21.4510 C   0  0  0  0  0  0  0  0  0  0  0  0
   27.8830    9.7800   21.2080 C   0  0  0  0  0  0  0  0  0  0  0  0
   27.3000   10.8010   20.4650 C   0  0  0  0  0  0  0  0  0  0  0  0
   28.0930   11.9190   20.2200 C   0  0  0  0  0  0  0  0  0  0  0  0
   29.3850   11.9780   20.7130 C   0  0  0  0  0  0  0  0  0  0  0  0
    0.0000    0.0000    0.0000 H   0  0  0  0  0  0  0  0  0  0  0  0
    0.0000    0.0000    0.0000 H   0  0  0  0  0  0  0  0  0  0  0  0
    0.0000    0.0000    0.0000 H   0  0  0  0  0  0  0  0  0  0  0  0
    0.0000    0.0000    0.0000 H   0  0  0  0  0  0  0  0  0  0  0  0
    0.0000    0.0000    0.0000 H   0  0  0  0  0  0  0  0  0  0  0  0
    0.0000    0.0000    0.0000 H   0  0  0  0  0  0  0  0  0  0  0  0
    0.0000    0.0000    0.0000 H   0  0  0  0  0  0  0  0  0  0  0  0
    0.0000    0.0000    0.0000 H   0  0  0  0  0  0  0  0  0  0  0  0
    0.0000    0.0000    0.0000 H   0  0  0  0  0  0  0  0  0  0  0  0
    0.0000    0.0000    0.0000 H   0  0  0  0  0  0  0  0  0  0  0  0
    0.0000    0.0000    0.0000 H   0  0  0  0  0  0  0  0  0  0  0  0
    0.0000    0.0000    0.0000 H   0  0  0  0  0  0  0  0  0  0  0  0
    0.0000    0.0000    0.0000 H   0  0  0  0  0  0  0  0  0  0  0  0
   10.8932    5.2020   10.5138 O   0  0  0  0  0  0  0  0  0  0  0  0
    9.9325    4.5638   11.3172 C   0  0  0  0  0  0  0  0  0  0  0  0
    9.3443    5.5360   12.2986 C   0  0  0  0  0  0  0  0  0  0  0  0
    8.2360    6.2675   11.9792 C   0  0  0  0  0  0  0  0  0  0  0  0
    7.6983    7.1558   12.8756 C   0  0  0  0  0  0  0  0  0  0  0  0
    8.2774    7.2990   14.0781 N   0  0  0  0  0  0  0  0  0  0  0  0
    9.3665    6.5919   14.4148 C   0  0  0  0  0  0  0  0  0  0  0  0
    9.9283    5.6910   13.5319 C   0  0  0  0  0  0  0  0  0  0  0  0
   10.4207    3.7715   11.9257 H   0  0  0  0  0  0  0  0  0  0  0  0
    9.1306    4.1416   10.6819 H   0  0  0  0  0  0  0  0  0  0  0  0
    7.7458    6.1679   11.0042 H   0  0  0  0  0  0  0  0  0  0  0  0
    6.7977    7.7508   12.6173 H   0  0  0  0  0  0  0  0  0  0  0  0
    9.8123    6.7180   15.3713 H   0  0  0  0  0  0  0  0  0  0  0  0
   10.8085    5.1107   13.7868 H   0  0  0  0  0  0  0  0  0  0  0  0
  1  3  2  0
  1  4  1  0
  2  4  1  0
  1  5  1  0
  2  6  1  0
  5  6  1  0
  6  7  2  3
  5  8  1  0
  4 10  1  0
 10 11  2  0
 11 12  1  0
 12 13  2  0
 13 14  1  0
 10 15  1  0
 14 15  2  0
  9 16  2  0
  9 17  1  0
 14 18  1  0
 17 18  2  0
 18 19  1  0
 16 20  1  0
 19 20  2  0
  2 21  1  0
  7 22  1  0
  8 23  1  0
  8 24  1  0
  8 25  1  0
 11 26  1  0
 12 27  1  0
 13 28  1  0
 15 29  1  0
 16 30  1  0
 17 31  1  0
 19 32  1  0
 20 33  1  0
 34 35  1  0
 35 36  1  0
 36 37  2  0
 37 38  1  0
 38 39  2  0
 39 40  1  0
 40 41  2  0
 41 36  1  0
 35 42  1  0
 35 43  1  0
 37 44  1  0
 38 45  1  0
 40 46  1  0
 41 47  1  0
  4 34  1  6
M  END
>  <attachment_point>  (488) 
21

>  <score>  (488) 
<NA>

$$$$
4djw
     RDKit          3D

 44 47  0  0  0  0  0  0  0  0999 V2000
   22.4950   11.8750   22.5810 C   0  0  0  0  0  0  0  0  0  0  0  0
   22.5380    9.4930   22.4640 N   0  0  0  0  0  0  0  0  0  0  0  0
   22.3600   13.0630   22.3480 O   0  0  0  0  0  0  0  0  0  0  0  0
   22.3390   10.6680   21.5610 C   0  0  2  0  0  0  0  0  0  0  0  0
   22.7860   11.3350   23.8120 N   0  0  0  0  0  0  0  0  0  0  0  0
   22.7800    9.9140   23.7010 C   0  0  0  0  0  0  0  0  0  0  0  0
   22.9970    9.1110   24.7490 N   0  0  0  0  0  0  0  0  0  0  0  0
   23.0220   12.1410   25.0180 C   0  0  0  0  0  0  0  0  0  0  0  0
   29.1260    9.8230   21.7090 N   0  0  0  0  0  0  0  0  0  0  0  0
   23.4880   10.6920   20.5300 C   0  0  0  0  0  0  0  0  0  0  0  0
   23.2110   10.7890   19.1730 C   0  0  0  0  0  0  0  0  0  0  0  0
   24.2350   10.8650   18.2430 C   0  0  0  0  0  0  0  0  0  0  0  0
   25.5500   10.8410   18.6560 C   0  0  0  0  0  0  0  0  0  0  0  0
   25.8710   10.7460   20.0070 C   0  0  0  0  0  0  0  0  0  0  0  0
   24.8260   10.6610   20.9430 C   0  0  0  0  0  0  0  0  0  0  0  0
   29.8540   10.9130   21.4510 C   0  0  0  0  0  0  0  0  0  0  0  0
   27.8830    9.7800   21.2080 C   0  0  0  0  0  0  0  0  0  0  0  0
   27.3000   10.8010   20.4650 C   0  0  0  0  0  0  0  0  0  0  0  0
   28.0930   11.9190   20.2200 C   0  0  0  0  0  0  0  0  0  0  0  0
   29.3850   11.9780   20.7130 C   0  0  0  0  0  0  0  0  0  0  0  0
    0.0000    0.0000    0.0000 H   0  0  0  0  0  0  0  0  0  0  0  0
    0.0000    0.0000    0.0000 H   0  0  0  0  0  0  0  0  0  0  0  0
    0.0000    0.0000    0.0000 H   0  0  0  0  0  0  0  0  0  0  0  0
    0.0000    0.0000    0.0000 H   0  0  0  0  0  0  0  0  0  0  0  0
    0.0000    0.0000    0.0000 H   0  0  0  0  0  0  0  0  0  0  0  0
    0.0000    0.0000    0.0000 H   0  0  0  0  0  0  0  0  0  0  0  0
    0.0000    0.0000    0.0000 H   0  0  0  0  0  0  0  0  0  0  0  0
    0.0000    0.0000    0.0000 H   0  0  0  0  0  0  0  0  0  0  0  0
    0.0000    0.0000    0.0000 H   0  0  0  0  0  0  0  0  0  0  0  0
    0.0000    0.0000    0.0000 H   0  0  0  0  0  0  0  0  0  0  0  0
    0.0000    0.0000    0.0000 H   0  0  0  0  0  0  0  0  0  0  0  0
    0.0000    0.0000    0.0000 H   0  0  0  0  0  0  0  0  0  0  0  0
    0.0000    0.0000    0.0000 H   0  0  0  0  0  0  0  0  0  0  0  0
   10.8717    5.1918   10.4930 C   0  0  0  0  0  0  0  0  0  0  0  0
   10.4762    3.8706   10.4420 C   0  0  0  0  0  0  0  0  0  0  0  0
    9.5358    3.4938    9.5131 C   0  0  0  0  0  0  0  0  0  0  0  0
    8.9612    4.3759    8.6209 C   0  0  0  0  0  0  0  0  0  0  0  0
    9.3682    5.6989    8.6841 C   0  0  0  0  0  0  0  0  0  0  0  0
    8.7186    6.9248    7.6087 Cl  0  0  0  0  0  0  0  0  0  0  0  0
   10.3147    6.0975    9.6134 C   0  0  0  0  0  0  0  0  0  0  0  0
   10.8215    7.7897    9.6790 Cl  0  0  0  0  0  0  0  0  0  0  0  0
   10.9091    3.1461   11.1316 H   0  0  0  0  0  0  0  0  0  0  0  0
    9.2167    2.4560    9.4637 H   0  0  0  0  0  0  0  0  0  0  0  0
    8.2251    4.0943    7.8899 H   0  0  0  0  0  0  0  0  0  0  0  0
  1  3  2  0
  1  4  1  0
  2  4  1  0
  1  5  1  0
  2  6  1  0
  5  6  1  0
  6  7  2  3
  5  8  1  0
  4 10  1  6
 10 11  2  0
 11 12  1  0
 12 13  2  0
 13 14  1  0
 10 15  1  0
 14 15  2  0
  9 16  2  0
  9 17  1  0
 14 18  1  0
 17 18  2  0
 18 19  1  0
 16 20  1  0
 19 20  2  0
  2 21  1  0
  7 22  1  0
  8 23  1  0
  8 24  1  0
  8 25  1  0
 11 26  1  0
 12 27  1  0
 13 28  1  0
 15 29  1  0
 16 30  1  0
 17 31  1  0
 19 32  1  0
 20 33  1  0
 34 35  2  0
 35 36  1  0
 36 37  2  0
 37 38  1  0
 38 39  1  0
 38 40  2  0
 40 41  1  0
 40 34  1  0
 35 42  1  0
 36 43  1  0
 37 44  1  0
  4 34  1  0
M  END
>  <attachment_point>  (489) 
21

>  <score>  (489) 
<NA>

$$$$
4djw
     RDKit          3D

 54 56  0  0  0  0  0  0  0  0999 V2000
   22.4950   11.8750   22.5810 C   0  0  0  0  0  0  0  0  0  0  0  0
   22.5380    9.4930   22.4640 N   0  0  0  0  0  0  0  0  0  0  0  0
   22.3600   13.0630   22.3480 O   0  0  0  0  0  0  0  0  0  0  0  0
   22.3390   10.6680   21.5610 C   0  0  2  0  0  0  0  0  0  0  0  0
   22.7860   11.3350   23.8120 N   0  0  0  0  0  0  0  0  0  0  0  0
   22.7800    9.9140   23.7010 C   0  0  0  0  0  0  0  0  0  0  0  0
   22.9970    9.1110   24.7490 N   0  0  0  0  0  0  0  0  0  0  0  0
   23.0220   12.1410   25.0180 C   0  0  0  0  0  0  0  0  0  0  0  0
   29.1260    9.8230   21.7090 N   0  0  0  0  0  0  0  0  0  0  0  0
   23.4880   10.6920   20.5300 C   0  0  0  0  0  0  0  0  0  0  0  0
   23.2110   10.7890   19.1730 C   0  0  0  0  0  0  0  0  0  0  0  0
   24.2350   10.8650   18.2430 C   0  0  0  0  0  0  0  0  0  0  0  0
   25.5500   10.8410   18.6560 C   0  0  0  0  0  0  0  0  0  0  0  0
   25.8710   10.7460   20.0070 C   0  0  0  0  0  0  0  0  0  0  0  0
   24.8260   10.6610   20.9430 C   0  0  0  0  0  0  0  0  0  0  0  0
   29.8540   10.9130   21.4510 C   0  0  0  0  0  0  0  0  0  0  0  0
   27.8830    9.7800   21.2080 C   0  0  0  0  0  0  0  0  0  0  0  0
   27.3000   10.8010   20.4650 C   0  0  0  0  0  0  0  0  0  0  0  0
   28.0930   11.9190   20.2200 C   0  0  0  0  0  0  0  0  0  0  0  0
   29.3850   11.9780   20.7130 C   0  0  0  0  0  0  0  0  0  0  0  0
    0.0000    0.0000    0.0000 H   0  0  0  0  0  0  0  0  0  0  0  0
    0.0000    0.0000    0.0000 H   0  0  0  0  0  0  0  0  0  0  0  0
    0.0000    0.0000    0.0000 H   0  0  0  0  0  0  0  0  0  0  0  0
    0.0000    0.0000    0.0000 H   0  0  0  0  0  0  0  0  0  0  0  0
    0.0000    0.0000    0.0000 H   0  0  0  0  0  0  0  0  0  0  0  0
    0.0000    0.0000    0.0000 H   0  0  0  0  0  0  0  0  0  0  0  0
    0.0000    0.0000    0.0000 H   0  0  0  0  0  0  0  0  0  0  0  0
    0.0000    0.0000    0.0000 H   0  0  0  0  0  0  0  0  0  0  0  0
    0.0000    0.0000    0.0000 H   0  0  0  0  0  0  0  0  0  0  0  0
    0.0000    0.0000    0.0000 H   0  0  0  0  0  0  0  0  0  0  0  0
    0.0000    0.0000    0.0000 H   0  0  0  0  0  0  0  0  0  0  0  0
    0.0000    0.0000    0.0000 H   0  0  0  0  0  0  0  0  0  0  0  0
    0.0000    0.0000    0.0000 H   0  0  0  0  0  0  0  0  0  0  0  0
   10.8562    5.1844   10.4781 C   0  0  0  0  0  0  0  0  0  0  0  0
    9.7940    4.4383   11.2350 C   0  0  0  0  0  0  0  0  0  0  0  0
    8.7377    3.9180   10.4280 N   0  0  0  0  0  0  0  0  0  0  0  0
    9.1466    2.8644    9.5464 C   0  0  0  0  0  0  0  0  0  0  0  0
    8.0161    2.2614    8.7824 C   0  0  0  0  0  0  0  0  0  0  0  0
    7.4980    3.7071   11.0889 C   0  0  0  0  0  0  0  0  0  0  0  0
    6.7844    4.9238   11.5567 C   0  0  0  0  0  0  0  0  0  0  0  0
   10.5382    6.1000    9.9833 H   0  0  0  0  0  0  0  0  0  0  0  0
   11.4300    4.5036    9.7812 H   0  0  0  0  0  0  0  0  0  0  0  0
    9.4407    5.0136   12.0858 H   0  0  0  0  0  0  0  0  0  0  0  0
   10.3185    3.5416   11.6776 H   0  0  0  0  0  0  0  0  0  0  0  0
    9.8602    3.3109    8.7754 H   0  0  0  0  0  0  0  0  0  0  0  0
    9.6472    2.0854   10.1606 H   0  0  0  0  0  0  0  0  0  0  0  0
    8.4642    1.6569    7.9320 H   0  0  0  0  0  0  0  0  0  0  0  0
    7.3876    3.0385    8.2733 H   0  0  0  0  0  0  0  0  0  0  0  0
    7.3954    1.5407    9.3676 H   0  0  0  0  0  0  0  0  0  0  0  0
    7.6816    3.0477   11.9725 H   0  0  0  0  0  0  0  0  0  0  0  0
    6.8026    3.1205   10.4343 H   0  0  0  0  0  0  0  0  0  0  0  0
    6.8847    5.0489   12.6735 H   0  0  0  0  0  0  0  0  0  0  0  0
    5.6794    4.7565   11.3855 H   0  0  0  0  0  0  0  0  0  0  0  0
    7.0134    5.8440   11.0134 H   0  0  0  0  0  0  0  0  0  0  0  0
  1  3  2  0
  1  4  1  0
  2  4  1  0
  1  5  1  0
  2  6  1  0
  5  6  1  0
  6  7  2  3
  5  8  1  0
  4 10  1  0
 10 11  2  0
 11 12  1  0
 12 13  2  0
 13 14  1  0
 10 15  1  0
 14 15  2  0
  9 16  2  0
  9 17  1  0
 14 18  1  0
 17 18  2  0
 18 19  1  0
 16 20  1  0
 19 20  2  0
  2 21  1  0
  7 22  1  0
  8 23  1  0
  8 24  1  0
  8 25  1  0
 11 26  1  0
 12 27  1  0
 13 28  1  0
 15 29  1  0
 16 30  1  0
 17 31  1  0
 19 32  1  0
 20 33  1  0
 34 35  1  0
 35 36  1  0
 36 37  1  0
 37 38  1  0
 36 39  1  0
 39 40  1  0
 34 41  1  0
 34 42  1  0
 35 43  1  0
 35 44  1  0
 37 45  1  0
 37 46  1  0
 38 47  1  0
 38 48  1  0
 38 49  1  0
 39 50  1  0
 39 51  1  0
 40 52  1  0
 40 53  1  0
 40 54  1  0
  4 34  1  6
M  END
>  <attachment_point>  (490) 
21

>  <score>  (490) 
<NA>

$$$$
4djw
     RDKit          3D

 44 46  0  0  0  0  0  0  0  0999 V2000
   22.4950   11.8750   22.5810 C   0  0  0  0  0  0  0  0  0  0  0  0
   22.5380    9.4930   22.4640 N   0  0  0  0  0  0  0  0  0  0  0  0
   22.3600   13.0630   22.3480 O   0  0  0  0  0  0  0  0  0  0  0  0
   22.3390   10.6680   21.5610 C   0  0  2  0  0  0  0  0  0  0  0  0
   22.7860   11.3350   23.8120 N   0  0  0  0  0  0  0  0  0  0  0  0
   22.7800    9.9140   23.7010 C   0  0  0  0  0  0  0  0  0  0  0  0
   22.9970    9.1110   24.7490 N   0  0  0  0  0  0  0  0  0  0  0  0
   23.0220   12.1410   25.0180 C   0  0  0  0  0  0  0  0  0  0  0  0
   29.1260    9.8230   21.7090 N   0  0  0  0  0  0  0  0  0  0  0  0
   23.4880   10.6920   20.5300 C   0  0  0  0  0  0  0  0  0  0  0  0
   23.2110   10.7890   19.1730 C   0  0  0  0  0  0  0  0  0  0  0  0
   24.2350   10.8650   18.2430 C   0  0  0  0  0  0  0  0  0  0  0  0
   25.5500   10.8410   18.6560 C   0  0  0  0  0  0  0  0  0  0  0  0
   25.8710   10.7460   20.0070 C   0  0  0  0  0  0  0  0  0  0  0  0
   24.8260   10.6610   20.9430 C   0  0  0  0  0  0  0  0  0  0  0  0
   29.8540   10.9130   21.4510 C   0  0  0  0  0  0  0  0  0  0  0  0
   27.8830    9.7800   21.2080 C   0  0  0  0  0  0  0  0  0  0  0  0
   27.3000   10.8010   20.4650 C   0  0  0  0  0  0  0  0  0  0  0  0
   28.0930   11.9190   20.2200 C   0  0  0  0  0  0  0  0  0  0  0  0
   29.3850   11.9780   20.7130 C   0  0  0  0  0  0  0  0  0  0  0  0
    0.0000    0.0000    0.0000 H   0  0  0  0  0  0  0  0  0  0  0  0
    0.0000    0.0000    0.0000 H   0  0  0  0  0  0  0  0  0  0  0  0
    0.0000    0.0000    0.0000 H   0  0  0  0  0  0  0  0  0  0  0  0
    0.0000    0.0000    0.0000 H   0  0  0  0  0  0  0  0  0  0  0  0
    0.0000    0.0000    0.0000 H   0  0  0  0  0  0  0  0  0  0  0  0
    0.0000    0.0000    0.0000 H   0  0  0  0  0  0  0  0  0  0  0  0
    0.0000    0.0000    0.0000 H   0  0  0  0  0  0  0  0  0  0  0  0
    0.0000    0.0000    0.0000 H   0  0  0  0  0  0  0  0  0  0  0  0
    0.0000    0.0000    0.0000 H   0  0  0  0  0  0  0  0  0  0  0  0
    0.0000    0.0000    0.0000 H   0  0  0  0  0  0  0  0  0  0  0  0
    0.0000    0.0000    0.0000 H   0  0  0  0  0  0  0  0  0  0  0  0
    0.0000    0.0000    0.0000 H   0  0  0  0  0  0  0  0  0  0  0  0
    0.0000    0.0000    0.0000 H   0  0  0  0  0  0  0  0  0  0  0  0
   10.8408    5.1770   10.4632 C   0  0  0  0  0  0  0  0  0  0  0  0
    9.6455    5.8006   10.6368 O   0  0  0  0  0  0  0  0  0  0  0  0
   11.1895    4.2709    9.6079 C   0  0  0  0  0  0  0  0  0  0  0  0
   12.5454    3.7174    9.5820 C   0  0  0  0  0  0  0  0  0  0  0  0
   12.9068    2.8511    8.7764 O   0  0  0  0  0  0  0  0  0  0  0  0
   13.5375    4.1968   10.5460 C   0  0  0  0  0  0  0  0  0  0  0  0
   13.2424    5.0873   11.4072 O   0  0  0  0  0  0  0  0  0  0  0  0
   14.8340    3.7205   10.5802 O   0  0  0  0  0  0  0  0  0  0  0  0
    9.1749    6.2150    9.8384 H   0  0  0  0  0  0  0  0  0  0  0  0
   10.4672    3.9245    8.9092 H   0  0  0  0  0  0  0  0  0  0  0  0
   15.6074    4.2624   10.9456 H   0  0  0  0  0  0  0  0  0  0  0  0
  1  3  2  0
  1  4  1  0
  2  4  1  0
  1  5  1  0
  2  6  1  0
  5  6  1  0
  6  7  2  3
  5  8  1  0
  4 10  1  6
 10 11  2  0
 11 12  1  0
 12 13  2  0
 13 14  1  0
 10 15  1  0
 14 15  2  0
  9 16  2  0
  9 17  1  0
 14 18  1  0
 17 18  2  0
 18 19  1  0
 16 20  1  0
 19 20  2  0
  2 21  1  0
  7 22  1  0
  8 23  1  0
  8 24  1  0
  8 25  1  0
 11 26  1  0
 12 27  1  0
 13 28  1  0
 15 29  1  0
 16 30  1  0
 17 31  1  0
 19 32  1  0
 20 33  1  0
 34 35  1  0
 34 36  2  3
 36 37  1  0
 37 38  2  0
 37 39  1  0
 39 40  2  0
 39 41  1  0
 35 42  1  0
 36 43  1  0
 41 44  1  0
  4 34  1  0
M  END
>  <attachment_point>  (491) 
21

>  <score>  (491) 
<NA>

$$$$
4djw
     RDKit          3D

 40 42  0  0  0  0  0  0  0  0999 V2000
   22.4950   11.8750   22.5810 C   0  0  0  0  0  0  0  0  0  0  0  0
   22.5380    9.4930   22.4640 N   0  0  0  0  0  0  0  0  0  0  0  0
   22.3600   13.0630   22.3480 O   0  0  0  0  0  0  0  0  0  0  0  0
   22.3390   10.6680   21.5610 C   0  0  2  0  0  0  0  0  0  0  0  0
   22.7860   11.3350   23.8120 N   0  0  0  0  0  0  0  0  0  0  0  0
   22.7800    9.9140   23.7010 C   0  0  0  0  0  0  0  0  0  0  0  0
   22.9970    9.1110   24.7490 N   0  0  0  0  0  0  0  0  0  0  0  0
   23.0220   12.1410   25.0180 C   0  0  0  0  0  0  0  0  0  0  0  0
   29.1260    9.8230   21.7090 N   0  0  0  0  0  0  0  0  0  0  0  0
   23.4880   10.6920   20.5300 C   0  0  0  0  0  0  0  0  0  0  0  0
   23.2110   10.7890   19.1730 C   0  0  0  0  0  0  0  0  0  0  0  0
   24.2350   10.8650   18.2430 C   0  0  0  0  0  0  0  0  0  0  0  0
   25.5500   10.8410   18.6560 C   0  0  0  0  0  0  0  0  0  0  0  0
   25.8710   10.7460   20.0070 C   0  0  0  0  0  0  0  0  0  0  0  0
   24.8260   10.6610   20.9430 C   0  0  0  0  0  0  0  0  0  0  0  0
   29.8540   10.9130   21.4510 C   0  0  0  0  0  0  0  0  0  0  0  0
   27.8830    9.7800   21.2080 C   0  0  0  0  0  0  0  0  0  0  0  0
   27.3000   10.8010   20.4650 C   0  0  0  0  0  0  0  0  0  0  0  0
   28.0930   11.9190   20.2200 C   0  0  0  0  0  0  0  0  0  0  0  0
   29.3850   11.9780   20.7130 C   0  0  0  0  0  0  0  0  0  0  0  0
    0.0000    0.0000    0.0000 H   0  0  0  0  0  0  0  0  0  0  0  0
    0.0000    0.0000    0.0000 H   0  0  0  0  0  0  0  0  0  0  0  0
    0.0000    0.0000    0.0000 H   0  0  0  0  0  0  0  0  0  0  0  0
    0.0000    0.0000    0.0000 H   0  0  0  0  0  0  0  0  0  0  0  0
    0.0000    0.0000    0.0000 H   0  0  0  0  0  0  0  0  0  0  0  0
    0.0000    0.0000    0.0000 H   0  0  0  0  0  0  0  0  0  0  0  0
    0.0000    0.0000    0.0000 H   0  0  0  0  0  0  0  0  0  0  0  0
    0.0000    0.0000    0.0000 H   0  0  0  0  0  0  0  0  0  0  0  0
    0.0000    0.0000    0.0000 H   0  0  0  0  0  0  0  0  0  0  0  0
    0.0000    0.0000    0.0000 H   0  0  0  0  0  0  0  0  0  0  0  0
    0.0000    0.0000    0.0000 H   0  0  0  0  0  0  0  0  0  0  0  0
    0.0000    0.0000    0.0000 H   0  0  0  0  0  0  0  0  0  0  0  0
    0.0000    0.0000    0.0000 H   0  0  0  0  0  0  0  0  0  0  0  0
   10.8764    5.1940   10.4976 C   0  0  0  0  0  0  0  0  0  0  0  0
    9.9182    6.2950   10.1023 C   0  0  0  0  0  0  0  0  0  0  0  0
   10.6890    7.3026    9.5307 F   0  0  0  0  0  0  0  0  0  0  0  0
    9.2131    6.8105   11.1424 F   0  0  0  0  0  0  0  0  0  0  0  0
    9.0391    5.8797    9.1259 F   0  0  0  0  0  0  0  0  0  0  0  0
   10.3576    4.2859   10.8560 H   0  0  0  0  0  0  0  0  0  0  0  0
   11.4233    4.8976    9.5789 H   0  0  0  0  0  0  0  0  0  0  0  0
  1  3  2  0
  1  4  1  0
  2  4  1  0
  1  5  1  0
  2  6  1  0
  5  6  1  0
  6  7  2  3
  5  8  1  0
  4 10  1  0
 10 11  2  0
 11 12  1  0
 12 13  2  0
 13 14  1  0
 10 15  1  0
 14 15  2  0
  9 16  2  0
  9 17  1  0
 14 18  1  0
 17 18  2  0
 18 19  1  0
 16 20  1  0
 19 20  2  0
  2 21  1  0
  7 22  1  0
  8 23  1  0
  8 24  1  0
  8 25  1  0
 11 26  1  0
 12 27  1  0
 13 28  1  0
 15 29  1  0
 16 30  1  0
 17 31  1  0
 19 32  1  0
 20 33  1  0
 34 35  1  0
 35 36  1  0
 35 37  1  0
 35 38  1  0
 34 39  1  0
 34 40  1  0
  4 34  1  6
M  END
>  <attachment_point>  (492) 
21

>  <score>  (492) 
<NA>

$$$$
4djw
     RDKit          3D

 45 48  0  0  0  0  0  0  0  0999 V2000
   22.4950   11.8750   22.5810 C   0  0  0  0  0  0  0  0  0  0  0  0
   22.5380    9.4930   22.4640 N   0  0  0  0  0  0  0  0  0  0  0  0
   22.3600   13.0630   22.3480 O   0  0  0  0  0  0  0  0  0  0  0  0
   22.3390   10.6680   21.5610 C   0  0  2  0  0  0  0  0  0  0  0  0
   22.7860   11.3350   23.8120 N   0  0  0  0  0  0  0  0  0  0  0  0
   22.7800    9.9140   23.7010 C   0  0  0  0  0  0  0  0  0  0  0  0
   22.9970    9.1110   24.7490 N   0  0  0  0  0  0  0  0  0  0  0  0
   23.0220   12.1410   25.0180 C   0  0  0  0  0  0  0  0  0  0  0  0
   29.1260    9.8230   21.7090 N   0  0  0  0  0  0  0  0  0  0  0  0
   23.4880   10.6920   20.5300 C   0  0  0  0  0  0  0  0  0  0  0  0
   23.2110   10.7890   19.1730 C   0  0  0  0  0  0  0  0  0  0  0  0
   24.2350   10.8650   18.2430 C   0  0  0  0  0  0  0  0  0  0  0  0
   25.5500   10.8410   18.6560 C   0  0  0  0  0  0  0  0  0  0  0  0
   25.8710   10.7460   20.0070 C   0  0  0  0  0  0  0  0  0  0  0  0
   24.8260   10.6610   20.9430 C   0  0  0  0  0  0  0  0  0  0  0  0
   29.8540   10.9130   21.4510 C   0  0  0  0  0  0  0  0  0  0  0  0
   27.8830    9.7800   21.2080 C   0  0  0  0  0  0  0  0  0  0  0  0
   27.3000   10.8010   20.4650 C   0  0  0  0  0  0  0  0  0  0  0  0
   28.0930   11.9190   20.2200 C   0  0  0  0  0  0  0  0  0  0  0  0
   29.3850   11.9780   20.7130 C   0  0  0  0  0  0  0  0  0  0  0  0
    0.0000    0.0000    0.0000 H   0  0  0  0  0  0  0  0  0  0  0  0
    0.0000    0.0000    0.0000 H   0  0  0  0  0  0  0  0  0  0  0  0
    0.0000    0.0000    0.0000 H   0  0  0  0  0  0  0  0  0  0  0  0
    0.0000    0.0000    0.0000 H   0  0  0  0  0  0  0  0  0  0  0  0
    0.0000    0.0000    0.0000 H   0  0  0  0  0  0  0  0  0  0  0  0
    0.0000    0.0000    0.0000 H   0  0  0  0  0  0  0  0  0  0  0  0
    0.0000    0.0000    0.0000 H   0  0  0  0  0  0  0  0  0  0  0  0
    0.0000    0.0000    0.0000 H   0  0  0  0  0  0  0  0  0  0  0  0
    0.0000    0.0000    0.0000 H   0  0  0  0  0  0  0  0  0  0  0  0
    0.0000    0.0000    0.0000 H   0  0  0  0  0  0  0  0  0  0  0  0
    0.0000    0.0000    0.0000 H   0  0  0  0  0  0  0  0  0  0  0  0
    0.0000    0.0000    0.0000 H   0  0  0  0  0  0  0  0  0  0  0  0
    0.0000    0.0000    0.0000 H   0  0  0  0  0  0  0  0  0  0  0  0
   10.8479    5.1804   10.4701 C   0  0  0  0  0  0  0  0  0  0  0  0
   11.0143    5.3524    9.2615 O   0  0  0  0  0  0  0  0  0  0  0  0
    9.7059    4.5223   11.0377 C   0  0  0  0  0  0  0  0  0  0  0  0
    8.7249    4.0472   10.1880 C   0  0  0  0  0  0  0  0  0  0  0  0
    7.6284    3.4151   10.7347 C   0  0  0  0  0  0  0  0  0  0  0  0
    7.5125    3.2629   12.0574 N   0  0  0  0  0  0  0  0  0  0  0  0
    8.4407    3.7085   12.9195 C   0  0  0  0  0  0  0  0  0  0  0  0
    9.5501    4.3457   12.3994 C   0  0  0  0  0  0  0  0  0  0  0  0
    8.7974    4.1588    9.1164 H   0  0  0  0  0  0  0  0  0  0  0  0
    6.8768    3.0540   10.0413 H   0  0  0  0  0  0  0  0  0  0  0  0
    8.3501    3.5865   13.9982 H   0  0  0  0  0  0  0  0  0  0  0  0
   10.3114    4.7119   13.0956 H   0  0  0  0  0  0  0  0  0  0  0  0
  1  3  2  0
  1  4  1  0
  2  4  1  0
  1  5  1  0
  2  6  1  0
  5  6  1  0
  6  7  2  3
  5  8  1  0
  4 10  1  0
 10 11  2  0
 11 12  1  0
 12 13  2  0
 13 14  1  0
 10 15  1  0
 14 15  2  0
  9 16  2  0
  9 17  1  0
 14 18  1  0
 17 18  2  0
 18 19  1  0
 16 20  1  0
 19 20  2  0
  2 21  1  0
  7 22  1  0
  8 23  1  0
  8 24  1  0
  8 25  1  0
 11 26  1  0
 12 27  1  0
 13 28  1  0
 15 29  1  0
 16 30  1  0
 17 31  1  0
 19 32  1  0
 20 33  1  0
 34 35  2  0
 34 36  1  0
 36 37  2  0
 37 38  1  0
 38 39  2  0
 39 40  1  0
 40 41  2  0
 41 36  1  0
 37 42  1  0
 38 43  1  0
 40 44  1  0
 41 45  1  0
  4 34  1  6
M  END
>  <attachment_point>  (493) 
21

>  <score>  (493) 
<NA>

$$$$
4djw
     RDKit          3D

 36 38  0  0  0  0  0  0  0  0999 V2000
   22.4950   11.8750   22.5810 C   0  0  0  0  0  0  0  0  0  0  0  0
   22.5380    9.4930   22.4640 N   0  0  0  0  0  0  0  0  0  0  0  0
   22.3600   13.0630   22.3480 O   0  0  0  0  0  0  0  0  0  0  0  0
   22.3390   10.6680   21.5610 C   0  0  2  0  0  0  0  0  0  0  0  0
   22.7860   11.3350   23.8120 N   0  0  0  0  0  0  0  0  0  0  0  0
   22.7800    9.9140   23.7010 C   0  0  0  0  0  0  0  0  0  0  0  0
   22.9970    9.1110   24.7490 N   0  0  0  0  0  0  0  0  0  0  0  0
   23.0220   12.1410   25.0180 C   0  0  0  0  0  0  0  0  0  0  0  0
   29.1260    9.8230   21.7090 N   0  0  0  0  0  0  0  0  0  0  0  0
   23.4880   10.6920   20.5300 C   0  0  0  0  0  0  0  0  0  0  0  0
   23.2110   10.7890   19.1730 C   0  0  0  0  0  0  0  0  0  0  0  0
   24.2350   10.8650   18.2430 C   0  0  0  0  0  0  0  0  0  0  0  0
   25.5500   10.8410   18.6560 C   0  0  0  0  0  0  0  0  0  0  0  0
   25.8710   10.7460   20.0070 C   0  0  0  0  0  0  0  0  0  0  0  0
   24.8260   10.6610   20.9430 C   0  0  0  0  0  0  0  0  0  0  0  0
   29.8540   10.9130   21.4510 C   0  0  0  0  0  0  0  0  0  0  0  0
   27.8830    9.7800   21.2080 C   0  0  0  0  0  0  0  0  0  0  0  0
   27.3000   10.8010   20.4650 C   0  0  0  0  0  0  0  0  0  0  0  0
   28.0930   11.9190   20.2200 C   0  0  0  0  0  0  0  0  0  0  0  0
   29.3850   11.9780   20.7130 C   0  0  0  0  0  0  0  0  0  0  0  0
    0.0000    0.0000    0.0000 H   0  0  0  0  0  0  0  0  0  0  0  0
    0.0000    0.0000    0.0000 H   0  0  0  0  0  0  0  0  0  0  0  0
    0.0000    0.0000    0.0000 H   0  0  0  0  0  0  0  0  0  0  0  0
    0.0000    0.0000    0.0000 H   0  0  0  0  0  0  0  0  0  0  0  0
    0.0000    0.0000    0.0000 H   0  0  0  0  0  0  0  0  0  0  0  0
    0.0000    0.0000    0.0000 H   0  0  0  0  0  0  0  0  0  0  0  0
    0.0000    0.0000    0.0000 H   0  0  0  0  0  0  0  0  0  0  0  0
    0.0000    0.0000    0.0000 H   0  0  0  0  0  0  0  0  0  0  0  0
    0.0000    0.0000    0.0000 H   0  0  0  0  0  0  0  0  0  0  0  0
    0.0000    0.0000    0.0000 H   0  0  0  0  0  0  0  0  0  0  0  0
    0.0000    0.0000    0.0000 H   0  0  0  0  0  0  0  0  0  0  0  0
    0.0000    0.0000    0.0000 H   0  0  0  0  0  0  0  0  0  0  0  0
    0.0000    0.0000    0.0000 H   0  0  0  0  0  0  0  0  0  0  0  0
   10.8345    5.1740   10.4572 N   0  0  0  0  0  0  0  0  0  0  0  0
   10.9475    3.9368   10.2930 C   0  0  0  0  0  0  0  0  0  0  0  0
   11.0303    2.3170   10.3724 S   0  0  0  0  0  0  0  0  0  0  0  0
  1  3  2  0
  1  4  1  0
  2  4  1  0
  1  5  1  0
  2  6  1  0
  5  6  1  0
  6  7  2  3
  5  8  1  0
  4 10  1  0
 10 11  2  0
 11 12  1  0
 12 13  2  0
 13 14  1  0
 10 15  1  0
 14 15  2  0
  9 16  2  0
  9 17  1  0
 14 18  1  0
 17 18  2  0
 18 19  1  0
 16 20  1  0
 19 20  2  0
  2 21  1  0
  7 22  1  0
  8 23  1  0
  8 24  1  0
  8 25  1  0
 11 26  1  0
 12 27  1  0
 13 28  1  0
 15 29  1  0
 16 30  1  0
 17 31  1  0
 19 32  1  0
 20 33  1  0
 34 35  2  0
 35 36  2  0
  4 34  1  6
M  END
>  <attachment_point>  (494) 
21

>  <score>  (494) 
<NA>

$$$$
4djw
     RDKit          3D

 39 41  0  0  0  0  0  0  0  0999 V2000
   22.4950   11.8750   22.5810 C   0  0  0  0  0  0  0  0  0  0  0  0
   22.5380    9.4930   22.4640 N   0  0  0  0  0  0  0  0  0  0  0  0
   22.3600   13.0630   22.3480 O   0  0  0  0  0  0  0  0  0  0  0  0
   22.3390   10.6680   21.5610 C   0  0  2  0  0  0  0  0  0  0  0  0
   22.7860   11.3350   23.8120 N   0  0  0  0  0  0  0  0  0  0  0  0
   22.7800    9.9140   23.7010 C   0  0  0  0  0  0  0  0  0  0  0  0
   22.9970    9.1110   24.7490 N   0  0  0  0  0  0  0  0  0  0  0  0
   23.0220   12.1410   25.0180 C   0  0  0  0  0  0  0  0  0  0  0  0
   29.1260    9.8230   21.7090 N   0  0  0  0  0  0  0  0  0  0  0  0
   23.4880   10.6920   20.5300 C   0  0  0  0  0  0  0  0  0  0  0  0
   23.2110   10.7890   19.1730 C   0  0  0  0  0  0  0  0  0  0  0  0
   24.2350   10.8650   18.2430 C   0  0  0  0  0  0  0  0  0  0  0  0
   25.5500   10.8410   18.6560 C   0  0  0  0  0  0  0  0  0  0  0  0
   25.8710   10.7460   20.0070 C   0  0  0  0  0  0  0  0  0  0  0  0
   24.8260   10.6610   20.9430 C   0  0  0  0  0  0  0  0  0  0  0  0
   29.8540   10.9130   21.4510 C   0  0  0  0  0  0  0  0  0  0  0  0
   27.8830    9.7800   21.2080 C   0  0  0  0  0  0  0  0  0  0  0  0
   27.3000   10.8010   20.4650 C   0  0  0  0  0  0  0  0  0  0  0  0
   28.0930   11.9190   20.2200 C   0  0  0  0  0  0  0  0  0  0  0  0
   29.3850   11.9780   20.7130 C   0  0  0  0  0  0  0  0  0  0  0  0
    0.0000    0.0000    0.0000 H   0  0  0  0  0  0  0  0  0  0  0  0
    0.0000    0.0000    0.0000 H   0  0  0  0  0  0  0  0  0  0  0  0
    0.0000    0.0000    0.0000 H   0  0  0  0  0  0  0  0  0  0  0  0
    0.0000    0.0000    0.0000 H   0  0  0  0  0  0  0  0  0  0  0  0
    0.0000    0.0000    0.0000 H   0  0  0  0  0  0  0  0  0  0  0  0
    0.0000    0.0000    0.0000 H   0  0  0  0  0  0  0  0  0  0  0  0
    0.0000    0.0000    0.0000 H   0  0  0  0  0  0  0  0  0  0  0  0
    0.0000    0.0000    0.0000 H   0  0  0  0  0  0  0  0  0  0  0  0
    0.0000    0.0000    0.0000 H   0  0  0  0  0  0  0  0  0  0  0  0
    0.0000    0.0000    0.0000 H   0  0  0  0  0  0  0  0  0  0  0  0
    0.0000    0.0000    0.0000 H   0  0  0  0  0  0  0  0  0  0  0  0
    0.0000    0.0000    0.0000 H   0  0  0  0  0  0  0  0  0  0  0  0
    0.0000    0.0000    0.0000 H   0  0  0  0  0  0  0  0  0  0  0  0
   10.8144    5.1644   10.4378 P   0  0  0  0  0  5  0  0  0  0  0  0
    9.5618    4.9189   11.2106 O   0  0  0  0  0  0  0  0  0  0  0  0
   11.3900    3.7500    9.7792 O   0  0  0  0  0  0  0  0  0  0  0  0
   10.5188    6.3705    9.3064 O   0  0  0  0  0  0  0  0  0  0  0  0
   12.0858    3.8665    9.0981 H   0  0  0  0  0  0  0  0  0  0  0  0
   11.2799    6.5307    8.6979 H   0  0  0  0  0  0  0  0  0  0  0  0
  1  3  2  0
  1  4  1  0
  2  4  1  0
  1  5  1  0
  2  6  1  0
  5  6  1  0
  6  7  2  3
  5  8  1  0
  4 10  1  0
 10 11  2  0
 11 12  1  0
 12 13  2  0
 13 14  1  0
 10 15  1  0
 14 15  2  0
  9 16  2  0
  9 17  1  0
 14 18  1  0
 17 18  2  0
 18 19  1  0
 16 20  1  0
 19 20  2  0
  2 21  1  0
  7 22  1  0
  8 23  1  0
  8 24  1  0
  8 25  1  0
 11 26  1  0
 12 27  1  0
 13 28  1  0
 15 29  1  0
 16 30  1  0
 17 31  1  0
 19 32  1  0
 20 33  1  0
 34 35  2  0
 34 36  1  0
 34 37  1  0
 36 38  1  0
 37 39  1  0
  4 34  1  6
M  END
>  <attachment_point>  (495) 
21

>  <score>  (495) 
<NA>

$$$$
4djw
     RDKit          3D

 46 49  0  0  0  0  0  0  0  0999 V2000
   22.4950   11.8750   22.5810 C   0  0  0  0  0  0  0  0  0  0  0  0
   22.5380    9.4930   22.4640 N   0  0  0  0  0  0  0  0  0  0  0  0
   22.3600   13.0630   22.3480 O   0  0  0  0  0  0  0  0  0  0  0  0
   22.3390   10.6680   21.5610 C   0  0  2  0  0  0  0  0  0  0  0  0
   22.7860   11.3350   23.8120 N   0  0  0  0  0  0  0  0  0  0  0  0
   22.7800    9.9140   23.7010 C   0  0  0  0  0  0  0  0  0  0  0  0
   22.9970    9.1110   24.7490 N   0  0  0  0  0  0  0  0  0  0  0  0
   23.0220   12.1410   25.0180 C   0  0  0  0  0  0  0  0  0  0  0  0
   29.1260    9.8230   21.7090 N   0  0  0  0  0  0  0  0  0  0  0  0
   23.4880   10.6920   20.5300 C   0  0  0  0  0  0  0  0  0  0  0  0
   23.2110   10.7890   19.1730 C   0  0  0  0  0  0  0  0  0  0  0  0
   24.2350   10.8650   18.2430 C   0  0  0  0  0  0  0  0  0  0  0  0
   25.5500   10.8410   18.6560 C   0  0  0  0  0  0  0  0  0  0  0  0
   25.8710   10.7460   20.0070 C   0  0  0  0  0  0  0  0  0  0  0  0
   24.8260   10.6610   20.9430 C   0  0  0  0  0  0  0  0  0  0  0  0
   29.8540   10.9130   21.4510 C   0  0  0  0  0  0  0  0  0  0  0  0
   27.8830    9.7800   21.2080 C   0  0  0  0  0  0  0  0  0  0  0  0
   27.3000   10.8010   20.4650 C   0  0  0  0  0  0  0  0  0  0  0  0
   28.0930   11.9190   20.2200 C   0  0  0  0  0  0  0  0  0  0  0  0
   29.3850   11.9780   20.7130 C   0  0  0  0  0  0  0  0  0  0  0  0
    0.0000    0.0000    0.0000 H   0  0  0  0  0  0  0  0  0  0  0  0
    0.0000    0.0000    0.0000 H   0  0  0  0  0  0  0  0  0  0  0  0
    0.0000    0.0000    0.0000 H   0  0  0  0  0  0  0  0  0  0  0  0
    0.0000    0.0000    0.0000 H   0  0  0  0  0  0  0  0  0  0  0  0
    0.0000    0.0000    0.0000 H   0  0  0  0  0  0  0  0  0  0  0  0
    0.0000    0.0000    0.0000 H   0  0  0  0  0  0  0  0  0  0  0  0
    0.0000    0.0000    0.0000 H   0  0  0  0  0  0  0  0  0  0  0  0
    0.0000    0.0000    0.0000 H   0  0  0  0  0  0  0  0  0  0  0  0
    0.0000    0.0000    0.0000 H   0  0  0  0  0  0  0  0  0  0  0  0
    0.0000    0.0000    0.0000 H   0  0  0  0  0  0  0  0  0  0  0  0
    0.0000    0.0000    0.0000 H   0  0  0  0  0  0  0  0  0  0  0  0
    0.0000    0.0000    0.0000 H   0  0  0  0  0  0  0  0  0  0  0  0
    0.0000    0.0000    0.0000 H   0  0  0  0  0  0  0  0  0  0  0  0
   10.8733    5.1926   10.4947 C   0  0  0  0  0  0  0  0  0  0  0  0
   10.9197    5.6503    9.1948 C   0  0  0  0  0  0  0  0  0  0  0  0
    9.9592    5.1729    8.3251 C   0  0  0  0  0  0  0  0  0  0  0  0
    9.0176    4.2763    8.7957 C   0  0  0  0  0  0  0  0  0  0  0  0
    8.9870    3.8329   10.0893 C   0  0  0  0  0  0  0  0  0  0  0  0
    7.9567    2.8625   10.5711 C   0  0  0  0  0  0  0  0  0  0  0  0
    8.1672    2.6464   11.9271 F   0  0  0  0  0  0  0  0  0  0  0  0
    7.9809    1.6833    9.8962 F   0  0  0  0  0  0  0  0  0  0  0  0
    6.6785    3.4181   10.4778 F   0  0  0  0  0  0  0  0  0  0  0  0
    9.9329    4.3103   10.9235 N   0  0  0  0  0  0  0  0  0  0  0  0
   11.6886    6.3568    8.8895 H   0  0  0  0  0  0  0  0  0  0  0  0
    9.9786    5.5203    7.3002 H   0  0  0  0  0  0  0  0  0  0  0  0
    8.2517    3.8924    8.1125 H   0  0  0  0  0  0  0  0  0  0  0  0
  1  3  2  0
  1  4  1  0
  2  4  1  0
  1  5  1  0
  2  6  1  0
  5  6  1  0
  6  7  2  3
  5  8  1  0
  4 10  1  6
 10 11  2  0
 11 12  1  0
 12 13  2  0
 13 14  1  0
 10 15  1  0
 14 15  2  0
  9 16  2  0
  9 17  1  0
 14 18  1  0
 17 18  2  0
 18 19  1  0
 16 20  1  0
 19 20  2  0
  2 21  1  0
  7 22  1  0
  8 23  1  0
  8 24  1  0
  8 25  1  0
 11 26  1  0
 12 27  1  0
 13 28  1  0
 15 29  1  0
 16 30  1  0
 17 31  1  0
 19 32  1  0
 20 33  1  0
 34 35  2  0
 35 36  1  0
 36 37  2  0
 37 38  1  0
 38 39  1  0
 39 40  1  0
 39 41  1  0
 39 42  1  0
 38 43  2  0
 43 34  1  0
 35 44  1  0
 36 45  1  0
 37 46  1  0
  4 34  1  0
M  END
>  <attachment_point>  (496) 
21

>  <score>  (496) 
<NA>

$$$$
4djw
     RDKit          3D

 57 61  0  0  0  0  0  0  0  0999 V2000
   22.4950   11.8750   22.5810 C   0  0  0  0  0  0  0  0  0  0  0  0
   22.5380    9.4930   22.4640 N   0  0  0  0  0  0  0  0  0  0  0  0
   22.3600   13.0630   22.3480 O   0  0  0  0  0  0  0  0  0  0  0  0
   22.3390   10.6680   21.5610 C   0  0  2  0  0  0  0  0  0  0  0  0
   22.7860   11.3350   23.8120 N   0  0  0  0  0  0  0  0  0  0  0  0
   22.7800    9.9140   23.7010 C   0  0  0  0  0  0  0  0  0  0  0  0
   22.9970    9.1110   24.7490 N   0  0  0  0  0  0  0  0  0  0  0  0
   23.0220   12.1410   25.0180 C   0  0  0  0  0  0  0  0  0  0  0  0
   29.1260    9.8230   21.7090 N   0  0  0  0  0  0  0  0  0  0  0  0
   23.4880   10.6920   20.5300 C   0  0  0  0  0  0  0  0  0  0  0  0
   23.2110   10.7890   19.1730 C   0  0  0  0  0  0  0  0  0  0  0  0
   24.2350   10.8650   18.2430 C   0  0  0  0  0  0  0  0  0  0  0  0
   25.5500   10.8410   18.6560 C   0  0  0  0  0  0  0  0  0  0  0  0
   25.8710   10.7460   20.0070 C   0  0  0  0  0  0  0  0  0  0  0  0
   24.8260   10.6610   20.9430 C   0  0  0  0  0  0  0  0  0  0  0  0
   29.8540   10.9130   21.4510 C   0  0  0  0  0  0  0  0  0  0  0  0
   27.8830    9.7800   21.2080 C   0  0  0  0  0  0  0  0  0  0  0  0
   27.3000   10.8010   20.4650 C   0  0  0  0  0  0  0  0  0  0  0  0
   28.0930   11.9190   20.2200 C   0  0  0  0  0  0  0  0  0  0  0  0
   29.3850   11.9780   20.7130 C   0  0  0  0  0  0  0  0  0  0  0  0
    0.0000    0.0000    0.0000 H   0  0  0  0  0  0  0  0  0  0  0  0
    0.0000    0.0000    0.0000 H   0  0  0  0  0  0  0  0  0  0  0  0
    0.0000    0.0000    0.0000 H   0  0  0  0  0  0  0  0  0  0  0  0
    0.0000    0.0000    0.0000 H   0  0  0  0  0  0  0  0  0  0  0  0
    0.0000    0.0000    0.0000 H   0  0  0  0  0  0  0  0  0  0  0  0
    0.0000    0.0000    0.0000 H   0  0  0  0  0  0  0  0  0  0  0  0
    0.0000    0.0000    0.0000 H   0  0  0  0  0  0  0  0  0  0  0  0
    0.0000    0.0000    0.0000 H   0  0  0  0  0  0  0  0  0  0  0  0
    0.0000    0.0000    0.0000 H   0  0  0  0  0  0  0  0  0  0  0  0
    0.0000    0.0000    0.0000 H   0  0  0  0  0  0  0  0  0  0  0  0
    0.0000    0.0000    0.0000 H   0  0  0  0  0  0  0  0  0  0  0  0
    0.0000    0.0000    0.0000 H   0  0  0  0  0  0  0  0  0  0  0  0
    0.0000    0.0000    0.0000 H   0  0  0  0  0  0  0  0  0  0  0  0
   10.8708    5.1914   10.4922 N   0  0  0  0  0  0  0  0  0  0  0  0
   10.0852    4.2719   11.2847 C   0  0  0  0  0  0  0  0  0  0  0  0
   10.8394    3.0132   11.6408 C   0  0  0  0  0  0  0  0  0  0  0  0
   11.1701    2.3347   10.4062 N   0  0  0  0  0  0  0  0  0  0  0  0
   11.4328    0.9323   10.3961 C   0  0  0  0  0  0  0  0  0  0  0  0
   11.3890    0.1881   11.5458 C   0  0  0  0  0  0  0  0  0  0  0  0
   11.6375   -1.1738   11.5753 C   0  0  0  0  0  0  0  0  0  0  0  0
   11.9408   -1.7869   10.3812 C   0  0  0  0  0  0  0  0  0  0  0  0
   11.9826   -1.0293    9.2280 C   0  0  0  0  0  0  0  0  0  0  0  0
   11.7344    0.2809    9.2574 N   0  0  0  0  0  0  0  0  0  0  0  0
   11.2217    3.1349    9.2004 C   0  0  0  0  0  0  0  0  0  0  0  0
   11.6542    4.5534    9.4848 C   0  0  0  0  0  0  0  0  0  0  0  0
    9.6828    4.7480   12.2017 H   0  0  0  0  0  0  0  0  0  0  0  0
    9.2066    3.9658   10.6790 H   0  0  0  0  0  0  0  0  0  0  0  0
   11.7882    3.2794   12.1350 H   0  0  0  0  0  0  0  0  0  0  0  0
   10.1636    2.4193   12.2929 H   0  0  0  0  0  0  0  0  0  0  0  0
   11.1551    0.6502   12.4808 H   0  0  0  0  0  0  0  0  0  0  0  0
   11.5993   -1.7486   12.4911 H   0  0  0  0  0  0  0  0  0  0  0  0
   12.1436   -2.8639   10.3652 H   0  0  0  0  0  0  0  0  0  0  0  0
   12.2268   -1.5624    8.3130 H   0  0  0  0  0  0  0  0  0  0  0  0
   10.2590    3.0973    8.6380 H   0  0  0  0  0  0  0  0  0  0  0  0
   11.9814    2.6776    8.5339 H   0  0  0  0  0  0  0  0  0  0  0  0
   12.7484    4.5768    9.6592 H   0  0  0  0  0  0  0  0  0  0  0  0
   11.4946    5.1209    8.5225 H   0  0  0  0  0  0  0  0  0  0  0  0
  1  3  2  0
  1  4  1  0
  2  4  1  0
  1  5  1  0
  2  6  1  0
  5  6  1  0
  6  7  2  3
  5  8  1  0
  4 10  1  0
 10 11  2  0
 11 12  1  0
 12 13  2  0
 13 14  1  0
 10 15  1  0
 14 15  2  0
  9 16  2  0
  9 17  1  0
 14 18  1  0
 17 18  2  0
 18 19  1  0
 16 20  1  0
 19 20  2  0
  2 21  1  0
  7 22  1  0
  8 23  1  0
  8 24  1  0
  8 25  1  0
 11 26  1  0
 12 27  1  0
 13 28  1  0
 15 29  1  0
 16 30  1  0
 17 31  1  0
 19 32  1  0
 20 33  1  0
 34 35  1  0
 35 36  1  0
 36 37  1  0
 37 38  1  0
 38 39  2  0
 39 40  1  0
 40 41  2  0
 41 42  1  0
 42 43  2  0
 37 44  1  0
 44 45  1  0
 45 34  1  0
 43 38  1  0
 35 46  1  0
 35 47  1  0
 36 48  1  0
 36 49  1  0
 39 50  1  0
 40 51  1  0
 41 52  1  0
 42 53  1  0
 44 54  1  0
 44 55  1  0
 45 56  1  0
 45 57  1  0
  4 34  1  6
M  END
>  <attachment_point>  (497) 
21

>  <score>  (497) 
<NA>

$$$$
4djw
     RDKit          3D

 57 60  0  0  0  0  0  0  0  0999 V2000
   22.4950   11.8750   22.5810 C   0  0  0  0  0  0  0  0  0  0  0  0
   22.5380    9.4930   22.4640 N   0  0  0  0  0  0  0  0  0  0  0  0
   22.3600   13.0630   22.3480 O   0  0  0  0  0  0  0  0  0  0  0  0
   22.3390   10.6680   21.5610 C   0  0  2  0  0  0  0  0  0  0  0  0
   22.7860   11.3350   23.8120 N   0  0  0  0  0  0  0  0  0  0  0  0
   22.7800    9.9140   23.7010 C   0  0  0  0  0  0  0  0  0  0  0  0
   22.9970    9.1110   24.7490 N   0  0  0  0  0  0  0  0  0  0  0  0
   23.0220   12.1410   25.0180 C   0  0  0  0  0  0  0  0  0  0  0  0
   29.1260    9.8230   21.7090 N   0  0  0  0  0  0  0  0  0  0  0  0
   23.4880   10.6920   20.5300 C   0  0  0  0  0  0  0  0  0  0  0  0
   23.2110   10.7890   19.1730 C   0  0  0  0  0  0  0  0  0  0  0  0
   24.2350   10.8650   18.2430 C   0  0  0  0  0  0  0  0  0  0  0  0
   25.5500   10.8410   18.6560 C   0  0  0  0  0  0  0  0  0  0  0  0
   25.8710   10.7460   20.0070 C   0  0  0  0  0  0  0  0  0  0  0  0
   24.8260   10.6610   20.9430 C   0  0  0  0  0  0  0  0  0  0  0  0
   29.8540   10.9130   21.4510 C   0  0  0  0  0  0  0  0  0  0  0  0
   27.8830    9.7800   21.2080 C   0  0  0  0  0  0  0  0  0  0  0  0
   27.3000   10.8010   20.4650 C   0  0  0  0  0  0  0  0  0  0  0  0
   28.0930   11.9190   20.2200 C   0  0  0  0  0  0  0  0  0  0  0  0
   29.3850   11.9780   20.7130 C   0  0  0  0  0  0  0  0  0  0  0  0
    0.0000    0.0000    0.0000 H   0  0  0  0  0  0  0  0  0  0  0  0
    0.0000    0.0000    0.0000 H   0  0  0  0  0  0  0  0  0  0  0  0
    0.0000    0.0000    0.0000 H   0  0  0  0  0  0  0  0  0  0  0  0
    0.0000    0.0000    0.0000 H   0  0  0  0  0  0  0  0  0  0  0  0
    0.0000    0.0000    0.0000 H   0  0  0  0  0  0  0  0  0  0  0  0
    0.0000    0.0000    0.0000 H   0  0  0  0  0  0  0  0  0  0  0  0
    0.0000    0.0000    0.0000 H   0  0  0  0  0  0  0  0  0  0  0  0
    0.0000    0.0000    0.0000 H   0  0  0  0  0  0  0  0  0  0  0  0
    0.0000    0.0000    0.0000 H   0  0  0  0  0  0  0  0  0  0  0  0
    0.0000    0.0000    0.0000 H   0  0  0  0  0  0  0  0  0  0  0  0
    0.0000    0.0000    0.0000 H   0  0  0  0  0  0  0  0  0  0  0  0
    0.0000    0.0000    0.0000 H   0  0  0  0  0  0  0  0  0  0  0  0
    0.0000    0.0000    0.0000 H   0  0  0  0  0  0  0  0  0  0  0  0
   10.8975    5.2041   10.5180 N   0  0  0  0  0  0  0  0  0  0  0  0
    9.7050    4.8905   11.2441 C   0  0  0  0  0  0  0  0  0  0  0  0
    8.6867    4.3839   10.2419 C   0  0  0  0  0  0  0  0  0  0  0  0
    8.3052    5.6195    9.4378 C   0  0  0  0  0  0  0  0  0  0  0  0
    7.1463    5.3434    8.7027 N   0  0  0  0  0  0  0  0  0  0  0  0
    5.9927    4.9883    9.4723 C   0  0  0  0  0  0  0  0  0  0  0  0
    7.2099    4.6433    7.5017 C   0  0  0  0  0  0  0  0  0  0  0  0
    9.4778    6.1507    8.7223 C   0  0  0  0  0  0  0  0  0  0  0  0
   10.7593    6.1224    9.4443 C   0  0  0  0  0  0  0  0  0  0  0  0
    9.3242    5.8324   11.7288 H   0  0  0  0  0  0  0  0  0  0  0  0
    9.9455    4.1474   12.0085 H   0  0  0  0  0  0  0  0  0  0  0  0
    7.8193    3.9109   10.7207 H   0  0  0  0  0  0  0  0  0  0  0  0
    9.2272    3.6520    9.5960 H   0  0  0  0  0  0  0  0  0  0  0  0
    8.0210    6.3900   10.2184 H   0  0  0  0  0  0  0  0  0  0  0  0
    5.0432    5.3767    9.0172 H   0  0  0  0  0  0  0  0  0  0  0  0
    6.1100    5.4559   10.4894 H   0  0  0  0  0  0  0  0  0  0  0  0
    5.8389    3.8916    9.5751 H   0  0  0  0  0  0  0  0  0  0  0  0
    6.5796    5.1814    6.7345 H   0  0  0  0  0  0  0  0  0  0  0  0
    8.1767    4.4157    7.0696 H   0  0  0  0  0  0  0  0  0  0  0  0
    6.6773    3.6536    7.6273 H   0  0  0  0  0  0  0  0  0  0  0  0
    9.2451    7.2290    8.4663 H   0  0  0  0  0  0  0  0  0  0  0  0
    9.6411    5.6857    7.7052 H   0  0  0  0  0  0  0  0  0  0  0  0
   11.0253    7.1471    9.8451 H   0  0  0  0  0  0  0  0  0  0  0  0
   11.6270    5.9033    8.7488 H   0  0  0  0  0  0  0  0  0  0  0  0
  1  3  2  0
  1  4  1  0
  2  4  1  0
  1  5  1  0
  2  6  1  0
  5  6  1  0
  6  7  2  3
  5  8  1  0
  4 10  1  0
 10 11  2  0
 11 12  1  0
 12 13  2  0
 13 14  1  0
 10 15  1  0
 14 15  2  0
  9 16  2  0
  9 17  1  0
 14 18  1  0
 17 18  2  0
 18 19  1  0
 16 20  1  0
 19 20  2  0
  2 21  1  0
  7 22  1  0
  8 23  1  0
  8 24  1  0
  8 25  1  0
 11 26  1  0
 12 27  1  0
 13 28  1  0
 15 29  1  0
 16 30  1  0
 17 31  1  0
 19 32  1  0
 20 33  1  0
 34 35  1  0
 35 36  1  0
 36 37  1  0
 37 38  1  0
 38 39  1  0
 38 40  1  0
 37 41  1  0
 41 42  1  0
 42 34  1  0
 35 43  1  0
 35 44  1  0
 36 45  1  0
 36 46  1  0
 37 47  1  0
 39 48  1  0
 39 49  1  0
 39 50  1  0
 40 51  1  0
 40 52  1  0
 40 53  1  0
 41 54  1  0
 41 55  1  0
 42 56  1  0
 42 57  1  0
  4 34  1  6
M  END
>  <attachment_point>  (498) 
21

>  <score>  (498) 
<NA>

$$$$
4djw
     RDKit          3D

 44 46  0  0  0  0  0  0  0  0999 V2000
   22.4950   11.8750   22.5810 C   0  0  0  0  0  0  0  0  0  0  0  0
   22.5380    9.4930   22.4640 N   0  0  0  0  0  0  0  0  0  0  0  0
   22.3600   13.0630   22.3480 O   0  0  0  0  0  0  0  0  0  0  0  0
   22.3390   10.6680   21.5610 C   0  0  2  0  0  0  0  0  0  0  0  0
   22.7860   11.3350   23.8120 N   0  0  0  0  0  0  0  0  0  0  0  0
   22.7800    9.9140   23.7010 C   0  0  0  0  0  0  0  0  0  0  0  0
   22.9970    9.1110   24.7490 N   0  0  0  0  0  0  0  0  0  0  0  0
   23.0220   12.1410   25.0180 C   0  0  0  0  0  0  0  0  0  0  0  0
   29.1260    9.8230   21.7090 N   0  0  0  0  0  0  0  0  0  0  0  0
   23.4880   10.6920   20.5300 C   0  0  0  0  0  0  0  0  0  0  0  0
   23.2110   10.7890   19.1730 C   0  0  0  0  0  0  0  0  0  0  0  0
   24.2350   10.8650   18.2430 C   0  0  0  0  0  0  0  0  0  0  0  0
   25.5500   10.8410   18.6560 C   0  0  0  0  0  0  0  0  0  0  0  0
   25.8710   10.7460   20.0070 C   0  0  0  0  0  0  0  0  0  0  0  0
   24.8260   10.6610   20.9430 C   0  0  0  0  0  0  0  0  0  0  0  0
   29.8540   10.9130   21.4510 C   0  0  0  0  0  0  0  0  0  0  0  0
   27.8830    9.7800   21.2080 C   0  0  0  0  0  0  0  0  0  0  0  0
   27.3000   10.8010   20.4650 C   0  0  0  0  0  0  0  0  0  0  0  0
   28.0930   11.9190   20.2200 C   0  0  0  0  0  0  0  0  0  0  0  0
   29.3850   11.9780   20.7130 C   0  0  0  0  0  0  0  0  0  0  0  0
    0.0000    0.0000    0.0000 H   0  0  0  0  0  0  0  0  0  0  0  0
    0.0000    0.0000    0.0000 H   0  0  0  0  0  0  0  0  0  0  0  0
    0.0000    0.0000    0.0000 H   0  0  0  0  0  0  0  0  0  0  0  0
    0.0000    0.0000    0.0000 H   0  0  0  0  0  0  0  0  0  0  0  0
    0.0000    0.0000    0.0000 H   0  0  0  0  0  0  0  0  0  0  0  0
    0.0000    0.0000    0.0000 H   0  0  0  0  0  0  0  0  0  0  0  0
    0.0000    0.0000    0.0000 H   0  0  0  0  0  0  0  0  0  0  0  0
    0.0000    0.0000    0.0000 H   0  0  0  0  0  0  0  0  0  0  0  0
    0.0000    0.0000    0.0000 H   0  0  0  0  0  0  0  0  0  0  0  0
    0.0000    0.0000    0.0000 H   0  0  0  0  0  0  0  0  0  0  0  0
    0.0000    0.0000    0.0000 H   0  0  0  0  0  0  0  0  0  0  0  0
    0.0000    0.0000    0.0000 H   0  0  0  0  0  0  0  0  0  0  0  0
    0.0000    0.0000    0.0000 H   0  0  0  0  0  0  0  0  0  0  0  0
   10.8258    5.1698   10.4487 C   0  0  0  0  0  0  0  0  0  0  0  0
   10.1991    5.9869    9.8235 O   0  0  0  0  0  0  0  0  0  0  0  0
   10.6860    3.7572   10.3384 C   0  0  0  0  0  0  0  0  0  0  0  0
   11.4277    2.9426   11.0756 C   0  0  0  0  0  0  0  0  0  0  0  0
   12.3320    3.5198   11.9459 O   0  0  0  0  0  0  0  0  0  0  0  0
   11.2906    1.4878   10.9687 C   0  0  0  0  0  0  0  0  0  0  0  0
   12.0228    0.7673   11.6950 O   0  0  0  0  0  0  0  0  0  0  0  0
   10.3905    0.9203   10.1025 O   0  0  0  0  0  0  0  0  0  0  0  0
    9.9550    3.3560    9.6339 H   0  0  0  0  0  0  0  0  0  0  0  0
   12.5363    3.1196   12.8585 H   0  0  0  0  0  0  0  0  0  0  0  0
   10.3817   -0.0626    9.8823 H   0  0  0  0  0  0  0  0  0  0  0  0
  1  3  2  0
  1  4  1  0
  2  4  1  0
  1  5  1  0
  2  6  1  0
  5  6  1  0
  6  7  2  3
  5  8  1  0
  4 10  1  0
 10 11  2  0
 11 12  1  0
 12 13  2  0
 13 14  1  0
 10 15  1  0
 14 15  2  0
  9 16  2  0
  9 17  1  0
 14 18  1  0
 17 18  2  0
 18 19  1  0
 16 20  1  0
 19 20  2  0
  2 21  1  0
  7 22  1  0
  8 23  1  0
  8 24  1  0
  8 25  1  0
 11 26  1  0
 12 27  1  0
 13 28  1  0
 15 29  1  0
 16 30  1  0
 17 31  1  0
 19 32  1  0
 20 33  1  0
 34 35  2  0
 34 36  1  0
 36 37  2  3
 37 38  1  0
 37 39  1  0
 39 40  2  0
 39 41  1  0
 36 42  1  0
 38 43  1  0
 41 44  1  0
  4 34  1  6
M  END
>  <attachment_point>  (499) 
21

>  <score>  (499) 
<NA>

$$$$
4djw
     RDKit          3D

 43 46  0  0  0  0  0  0  0  0999 V2000
   22.4950   11.8750   22.5810 C   0  0  0  0  0  0  0  0  0  0  0  0
   22.5380    9.4930   22.4640 N   0  0  0  0  0  0  0  0  0  0  0  0
   22.3600   13.0630   22.3480 O   0  0  0  0  0  0  0  0  0  0  0  0
   22.3390   10.6680   21.5610 C   0  0  2  0  0  0  0  0  0  0  0  0
   22.7860   11.3350   23.8120 N   0  0  0  0  0  0  0  0  0  0  0  0
   22.7800    9.9140   23.7010 C   0  0  0  0  0  0  0  0  0  0  0  0
   22.9970    9.1110   24.7490 N   0  0  0  0  0  0  0  0  0  0  0  0
   23.0220   12.1410   25.0180 C   0  0  0  0  0  0  0  0  0  0  0  0
   29.1260    9.8230   21.7090 N   0  0  0  0  0  0  0  0  0  0  0  0
   23.4880   10.6920   20.5300 C   0  0  0  0  0  0  0  0  0  0  0  0
   23.2110   10.7890   19.1730 C   0  0  0  0  0  0  0  0  0  0  0  0
   24.2350   10.8650   18.2430 C   0  0  0  0  0  0  0  0  0  0  0  0
   25.5500   10.8410   18.6560 C   0  0  0  0  0  0  0  0  0  0  0  0
   25.8710   10.7460   20.0070 C   0  0  0  0  0  0  0  0  0  0  0  0
   24.8260   10.6610   20.9430 C   0  0  0  0  0  0  0  0  0  0  0  0
   29.8540   10.9130   21.4510 C   0  0  0  0  0  0  0  0  0  0  0  0
   27.8830    9.7800   21.2080 C   0  0  0  0  0  0  0  0  0  0  0  0
   27.3000   10.8010   20.4650 C   0  0  0  0  0  0  0  0  0  0  0  0
   28.0930   11.9190   20.2200 C   0  0  0  0  0  0  0  0  0  0  0  0
   29.3850   11.9780   20.7130 C   0  0  0  0  0  0  0  0  0  0  0  0
    0.0000    0.0000    0.0000 H   0  0  0  0  0  0  0  0  0  0  0  0
    0.0000    0.0000    0.0000 H   0  0  0  0  0  0  0  0  0  0  0  0
    0.0000    0.0000    0.0000 H   0  0  0  0  0  0  0  0  0  0  0  0
    0.0000    0.0000    0.0000 H   0  0  0  0  0  0  0  0  0  0  0  0
    0.0000    0.0000    0.0000 H   0  0  0  0  0  0  0  0  0  0  0  0
    0.0000    0.0000    0.0000 H   0  0  0  0  0  0  0  0  0  0  0  0
    0.0000    0.0000    0.0000 H   0  0  0  0  0  0  0  0  0  0  0  0
    0.0000    0.0000    0.0000 H   0  0  0  0  0  0  0  0  0  0  0  0
    0.0000    0.0000    0.0000 H   0  0  0  0  0  0  0  0  0  0  0  0
    0.0000    0.0000    0.0000 H   0  0  0  0  0  0  0  0  0  0  0  0
    0.0000    0.0000    0.0000 H   0  0  0  0  0  0  0  0  0  0  0  0
    0.0000    0.0000    0.0000 H   0  0  0  0  0  0  0  0  0  0  0  0
    0.0000    0.0000    0.0000 H   0  0  0  0  0  0  0  0  0  0  0  0
   10.8664    5.1893   10.4880 C   0  0  0  0  0  0  0  0  0  0  0  0
   10.5435    3.8431   10.4876 C   0  0  0  0  0  0  0  0  0  0  0  0
    9.6266    3.4623    9.5878 N   0  0  0  0  0  0  0  0  0  0  0  0
    9.0384    4.3127    8.7245 C   0  0  0  0  0  0  0  0  0  0  0  0
    9.3472    5.6549    8.7108 C   0  0  0  0  0  0  0  0  0  0  0  0
    8.7541    6.5229    7.8376 F   0  0  0  0  0  0  0  0  0  0  0  0
   10.2861    6.0912    9.6200 C   0  0  0  0  0  0  0  0  0  0  0  0
   11.0265    3.1750   11.1884 H   0  0  0  0  0  0  0  0  0  0  0  0
    8.2923    3.9720    8.0003 H   0  0  0  0  0  0  0  0  0  0  0  0
   10.5504    7.1567    9.6300 H   0  0  0  0  0  0  0  0  0  0  0  0
  1  3  2  0
  1  4  1  0
  2  4  1  0
  1  5  1  0
  2  6  1  0
  5  6  1  0
  6  7  2  3
  5  8  1  0
  4 10  1  6
 10 11  2  0
 11 12  1  0
 12 13  2  0
 13 14  1  0
 10 15  1  0
 14 15  2  0
  9 16  2  0
  9 17  1  0
 14 18  1  0
 17 18  2  0
 18 19  1  0
 16 20  1  0
 19 20  2  0
  2 21  1  0
  7 22  1  0
  8 23  1  0
  8 24  1  0
  8 25  1  0
 11 26  1  0
 12 27  1  0
 13 28  1  0
 15 29  1  0
 16 30  1  0
 17 31  1  0
 19 32  1  0
 20 33  1  0
 34 35  2  0
 35 36  1  0
 36 37  2  0
 37 38  1  0
 38 39  1  0
 38 40  2  0
 40 34  1  0
 35 41  1  0
 37 42  1  0
 40 43  1  0
  4 34  1  0
M  END
>  <attachment_point>  (500) 
21

>  <score>  (500) 
<NA>

$$$$
4djw
     RDKit          3D

 45 48  0  0  0  0  0  0  0  0999 V2000
   22.4950   11.8750   22.5810 C   0  0  0  0  0  0  0  0  0  0  0  0
   22.5380    9.4930   22.4640 N   0  0  0  0  0  0  0  0  0  0  0  0
   22.3600   13.0630   22.3480 O   0  0  0  0  0  0  0  0  0  0  0  0
   22.3390   10.6680   21.5610 C   0  0  2  0  0  0  0  0  0  0  0  0
   22.7860   11.3350   23.8120 N   0  0  0  0  0  0  0  0  0  0  0  0
   22.7800    9.9140   23.7010 C   0  0  0  0  0  0  0  0  0  0  0  0
   22.9970    9.1110   24.7490 N   0  0  0  0  0  0  0  0  0  0  0  0
   23.0220   12.1410   25.0180 C   0  0  0  0  0  0  0  0  0  0  0  0
   29.1260    9.8230   21.7090 N   0  0  0  0  0  0  0  0  0  0  0  0
   23.4880   10.6920   20.5300 C   0  0  0  0  0  0  0  0  0  0  0  0
   23.2110   10.7890   19.1730 C   0  0  0  0  0  0  0  0  0  0  0  0
   24.2350   10.8650   18.2430 C   0  0  0  0  0  0  0  0  0  0  0  0
   25.5500   10.8410   18.6560 C   0  0  0  0  0  0  0  0  0  0  0  0
   25.8710   10.7460   20.0070 C   0  0  0  0  0  0  0  0  0  0  0  0
   24.8260   10.6610   20.9430 C   0  0  0  0  0  0  0  0  0  0  0  0
   29.8540   10.9130   21.4510 C   0  0  0  0  0  0  0  0  0  0  0  0
   27.8830    9.7800   21.2080 C   0  0  0  0  0  0  0  0  0  0  0  0
   27.3000   10.8010   20.4650 C   0  0  0  0  0  0  0  0  0  0  0  0
   28.0930   11.9190   20.2200 C   0  0  0  0  0  0  0  0  0  0  0  0
   29.3850   11.9780   20.7130 C   0  0  0  0  0  0  0  0  0  0  0  0
    0.0000    0.0000    0.0000 H   0  0  0  0  0  0  0  0  0  0  0  0
    0.0000    0.0000    0.0000 H   0  0  0  0  0  0  0  0  0  0  0  0
    0.0000    0.0000    0.0000 H   0  0  0  0  0  0  0  0  0  0  0  0
    0.0000    0.0000    0.0000 H   0  0  0  0  0  0  0  0  0  0  0  0
    0.0000    0.0000    0.0000 H   0  0  0  0  0  0  0  0  0  0  0  0
    0.0000    0.0000    0.0000 H   0  0  0  0  0  0  0  0  0  0  0  0
    0.0000    0.0000    0.0000 H   0  0  0  0  0  0  0  0  0  0  0  0
    0.0000    0.0000    0.0000 H   0  0  0  0  0  0  0  0  0  0  0  0
    0.0000    0.0000    0.0000 H   0  0  0  0  0  0  0  0  0  0  0  0
    0.0000    0.0000    0.0000 H   0  0  0  0  0  0  0  0  0  0  0  0
    0.0000    0.0000    0.0000 H   0  0  0  0  0  0  0  0  0  0  0  0
    0.0000    0.0000    0.0000 H   0  0  0  0  0  0  0  0  0  0  0  0
    0.0000    0.0000    0.0000 H   0  0  0  0  0  0  0  0  0  0  0  0
   11.1695    5.3340   10.7805 C   0  0  0  0  0  0  0  0  0  0  0  0
   11.1695    5.3340   10.7805 C   0  0  0  0  0  0  0  0  0  0  0  0
   11.1695    5.3340   10.7805 C   0  0  0  0  0  0  0  0  0  0  0  0
   11.1695    5.3340   10.7805 N   0  0  0  0  0  0  0  0  0  0  0  0
   11.1695    5.3340   10.7805 C   0  0  0  0  0  0  0  0  0  0  0  0
   11.1695    5.3340   10.7805 C   0  0  0  0  0  0  0  0  0  0  0  0
   11.1695    5.3340   10.7805 F   0  0  0  0  0  0  0  0  0  0  0  0
   11.1695    5.3340   10.7805 F   0  0  0  0  0  0  0  0  0  0  0  0
   11.1695    5.3340   10.7805 F   0  0  0  0  0  0  0  0  0  0  0  0
   11.1695    5.3340   10.7805 N   0  0  0  0  0  0  0  0  0  0  0  0
   11.1695    5.3340   10.7805 H   0  0  0  0  0  0  0  0  0  0  0  0
   11.1695    5.3340   10.7805 H   0  0  0  0  0  0  0  0  0  0  0  0
  1  3  2  0
  1  4  1  0
  2  4  1  0
  1  5  1  0
  2  6  1  0
  5  6  1  0
  6  7  2  3
  5  8  1  0
  4 10  1  6
 10 11  2  0
 11 12  1  0
 12 13  2  0
 13 14  1  0
 10 15  1  0
 14 15  2  0
  9 16  2  0
  9 17  1  0
 14 18  1  0
 17 18  2  0
 18 19  1  0
 16 20  1  0
 19 20  2  0
  2 21  1  0
  7 22  1  0
  8 23  1  0
  8 24  1  0
  8 25  1  0
 11 26  1  0
 12 27  1  0
 13 28  1  0
 15 29  1  0
 16 30  1  0
 17 31  1  0
 19 32  1  0
 20 33  1  0
 34 43  1  0
 34 35  2  0
 35 36  1  0
 36 37  2  0
 37 38  1  0
 38 39  1  0
 38 43  2  0
 39 40  1  0
 39 41  1  0
 39 42  1  0
 35 44  1  0
 36 45  1  0
  4 34  1  0
M  END
>  <attachment_point>  (501) 
21

>  <score>  (501) 
<NA>

$$$$
4djw
     RDKit          3D

 47 51  0  0  0  0  0  0  0  0999 V2000
   22.4950   11.8750   22.5810 C   0  0  0  0  0  0  0  0  0  0  0  0
   22.5380    9.4930   22.4640 N   0  0  0  0  0  0  0  0  0  0  0  0
   22.3600   13.0630   22.3480 O   0  0  0  0  0  0  0  0  0  0  0  0
   22.3390   10.6680   21.5610 C   0  0  2  0  0  0  0  0  0  0  0  0
   22.7860   11.3350   23.8120 N   0  0  0  0  0  0  0  0  0  0  0  0
   22.7800    9.9140   23.7010 C   0  0  0  0  0  0  0  0  0  0  0  0
   22.9970    9.1110   24.7490 N   0  0  0  0  0  0  0  0  0  0  0  0
   23.0220   12.1410   25.0180 C   0  0  0  0  0  0  0  0  0  0  0  0
   29.1260    9.8230   21.7090 N   0  0  0  0  0  0  0  0  0  0  0  0
   23.4880   10.6920   20.5300 C   0  0  0  0  0  0  0  0  0  0  0  0
   23.2110   10.7890   19.1730 C   0  0  0  0  0  0  0  0  0  0  0  0
   24.2350   10.8650   18.2430 C   0  0  0  0  0  0  0  0  0  0  0  0
   25.5500   10.8410   18.6560 C   0  0  0  0  0  0  0  0  0  0  0  0
   25.8710   10.7460   20.0070 C   0  0  0  0  0  0  0  0  0  0  0  0
   24.8260   10.6610   20.9430 C   0  0  0  0  0  0  0  0  0  0  0  0
   29.8540   10.9130   21.4510 C   0  0  0  0  0  0  0  0  0  0  0  0
   27.8830    9.7800   21.2080 C   0  0  0  0  0  0  0  0  0  0  0  0
   27.3000   10.8010   20.4650 C   0  0  0  0  0  0  0  0  0  0  0  0
   28.0930   11.9190   20.2200 C   0  0  0  0  0  0  0  0  0  0  0  0
   29.3850   11.9780   20.7130 C   0  0  0  0  0  0  0  0  0  0  0  0
    0.0000    0.0000    0.0000 H   0  0  0  0  0  0  0  0  0  0  0  0
    0.0000    0.0000    0.0000 H   0  0  0  0  0  0  0  0  0  0  0  0
    0.0000    0.0000    0.0000 H   0  0  0  0  0  0  0  0  0  0  0  0
    0.0000    0.0000    0.0000 H   0  0  0  0  0  0  0  0  0  0  0  0
    0.0000    0.0000    0.0000 H   0  0  0  0  0  0  0  0  0  0  0  0
    0.0000    0.0000    0.0000 H   0  0  0  0  0  0  0  0  0  0  0  0
    0.0000    0.0000    0.0000 H   0  0  0  0  0  0  0  0  0  0  0  0
    0.0000    0.0000    0.0000 H   0  0  0  0  0  0  0  0  0  0  0  0
    0.0000    0.0000    0.0000 H   0  0  0  0  0  0  0  0  0  0  0  0
    0.0000    0.0000    0.0000 H   0  0  0  0  0  0  0  0  0  0  0  0
    0.0000    0.0000    0.0000 H   0  0  0  0  0  0  0  0  0  0  0  0
    0.0000    0.0000    0.0000 H   0  0  0  0  0  0  0  0  0  0  0  0
    0.0000    0.0000    0.0000 H   0  0  0  0  0  0  0  0  0  0  0  0
   11.1695    5.3340   10.7805 C   0  0  0  0  0  0  0  0  0  0  0  0
   11.1695    5.3340   10.7805 C   0  0  0  0  0  0  0  0  0  0  0  0
   11.1695    5.3340   10.7805 C   0  0  0  0  0  0  0  0  0  0  0  0
   11.1695    5.3340   10.7805 C   0  0  0  0  0  0  0  0  0  0  0  0
   11.1695    5.3340   10.7805 C   0  0  0  0  0  0  0  0  0  0  0  0
   11.1695    5.3340   10.7805 N   0  0  0  0  0  0  0  0  0  0  0  0
   11.1695    5.3340   10.7805 N   0  0  0  0  0  0  0  0  0  0  0  0
   11.1695    5.3340   10.7805 C   0  0  0  0  0  0  0  0  0  0  0  0
   11.1695    5.3340   10.7805 C   0  0  0  0  0  0  0  0  0  0  0  0
   11.1695    5.3340   10.7805 H   0  0  0  0  0  0  0  0  0  0  0  0
   11.1695    5.3340   10.7805 H   0  0  0  0  0  0  0  0  0  0  0  0
   11.1695    5.3340   10.7805 H   0  0  0  0  0  0  0  0  0  0  0  0
   11.1695    5.3340   10.7805 H   0  0  0  0  0  0  0  0  0  0  0  0
   11.1695    5.3340   10.7805 H   0  0  0  0  0  0  0  0  0  0  0  0
  1  3  2  0
  1  4  1  0
  2  4  1  0
  1  5  1  0
  2  6  1  0
  5  6  1  0
  6  7  2  3
  5  8  1  0
  4 10  1  6
 10 11  2  0
 11 12  1  0
 12 13  2  0
 13 14  1  0
 10 15  1  0
 14 15  2  0
  9 16  2  0
  9 17  1  0
 14 18  1  0
 17 18  2  0
 18 19  1  0
 16 20  1  0
 19 20  2  0
  2 21  1  0
  7 22  1  0
  8 23  1  0
  8 24  1  0
  8 25  1  0
 11 26  1  0
 12 27  1  0
 13 28  1  0
 15 29  1  0
 16 30  1  0
 17 31  1  0
 19 32  1  0
 20 33  1  0
 34 42  1  0
 34 35  2  0
 35 36  1  0
 36 37  2  0
 37 41  1  0
 37 38  1  0
 38 39  2  0
 39 40  1  0
 40 41  1  0
 41 42  2  0
 35 43  1  0
 36 44  1  0
 38 45  1  0
 40 46  1  0
 42 47  1  0
  4 34  1  0
M  END
>  <attachment_point>  (502) 
21

>  <score>  (502) 
<NA>

$$$$
4djw
     RDKit          3D

 42 45  0  0  0  0  0  0  0  0999 V2000
   22.4950   11.8750   22.5810 C   0  0  0  0  0  0  0  0  0  0  0  0
   22.5380    9.4930   22.4640 N   0  0  0  0  0  0  0  0  0  0  0  0
   22.3600   13.0630   22.3480 O   0  0  0  0  0  0  0  0  0  0  0  0
   22.3390   10.6680   21.5610 C   0  0  2  0  0  0  0  0  0  0  0  0
   22.7860   11.3350   23.8120 N   0  0  0  0  0  0  0  0  0  0  0  0
   22.7800    9.9140   23.7010 C   0  0  0  0  0  0  0  0  0  0  0  0
   22.9970    9.1110   24.7490 N   0  0  0  0  0  0  0  0  0  0  0  0
   23.0220   12.1410   25.0180 C   0  0  0  0  0  0  0  0  0  0  0  0
   29.1260    9.8230   21.7090 N   0  0  0  0  0  0  0  0  0  0  0  0
   23.4880   10.6920   20.5300 C   0  0  0  0  0  0  0  0  0  0  0  0
   23.2110   10.7890   19.1730 C   0  0  0  0  0  0  0  0  0  0  0  0
   24.2350   10.8650   18.2430 C   0  0  0  0  0  0  0  0  0  0  0  0
   25.5500   10.8410   18.6560 C   0  0  0  0  0  0  0  0  0  0  0  0
   25.8710   10.7460   20.0070 C   0  0  0  0  0  0  0  0  0  0  0  0
   24.8260   10.6610   20.9430 C   0  0  0  0  0  0  0  0  0  0  0  0
   29.8540   10.9130   21.4510 C   0  0  0  0  0  0  0  0  0  0  0  0
   27.8830    9.7800   21.2080 C   0  0  0  0  0  0  0  0  0  0  0  0
   27.3000   10.8010   20.4650 C   0  0  0  0  0  0  0  0  0  0  0  0
   28.0930   11.9190   20.2200 C   0  0  0  0  0  0  0  0  0  0  0  0
   29.3850   11.9780   20.7130 C   0  0  0  0  0  0  0  0  0  0  0  0
    0.0000    0.0000    0.0000 H   0  0  0  0  0  0  0  0  0  0  0  0
    0.0000    0.0000    0.0000 H   0  0  0  0  0  0  0  0  0  0  0  0
    0.0000    0.0000    0.0000 H   0  0  0  0  0  0  0  0  0  0  0  0
    0.0000    0.0000    0.0000 H   0  0  0  0  0  0  0  0  0  0  0  0
    0.0000    0.0000    0.0000 H   0  0  0  0  0  0  0  0  0  0  0  0
    0.0000    0.0000    0.0000 H   0  0  0  0  0  0  0  0  0  0  0  0
    0.0000    0.0000    0.0000 H   0  0  0  0  0  0  0  0  0  0  0  0
    0.0000    0.0000    0.0000 H   0  0  0  0  0  0  0  0  0  0  0  0
    0.0000    0.0000    0.0000 H   0  0  0  0  0  0  0  0  0  0  0  0
    0.0000    0.0000    0.0000 H   0  0  0  0  0  0  0  0  0  0  0  0
    0.0000    0.0000    0.0000 H   0  0  0  0  0  0  0  0  0  0  0  0
    0.0000    0.0000    0.0000 H   0  0  0  0  0  0  0  0  0  0  0  0
    0.0000    0.0000    0.0000 H   0  0  0  0  0  0  0  0  0  0  0  0
   11.1695    5.3340   10.7805 C   0  0  0  0  0  0  0  0  0  0  0  0
   11.1695    5.3340   10.7805 N   0  0  0  0  0  0  0  0  0  0  0  0
   11.1695    5.3340   10.7805 O   0  0  0  0  0  0  0  0  0  0  0  0
   11.1695    5.3340   10.7805 C   0  0  0  0  0  0  0  0  0  0  0  0
   11.1695    5.3340   10.7805 C   0  0  0  0  0  0  0  0  0  0  0  0
   11.1695    5.3340   10.7805 N   0  0  0  0  0  0  0  0  0  0  0  0
   11.1695    5.3340   10.7805 H   0  0  0  0  0  0  0  0  0  0  0  0
   11.1695    5.3340   10.7805 H   0  0  0  0  0  0  0  0  0  0  0  0
   11.1695    5.3340   10.7805 H   0  0  0  0  0  0  0  0  0  0  0  0
  1  3  2  0
  1  4  1  0
  2  4  1  0
  1  5  1  0
  2  6  1  0
  5  6  1  0
  6  7  2  3
  5  8  1  0
  4 10  1  6
 10 11  2  0
 11 12  1  0
 12 13  2  0
 13 14  1  0
 10 15  1  0
 14 15  2  0
  9 16  2  0
  9 17  1  0
 14 18  1  0
 17 18  2  0
 18 19  1  0
 16 20  1  0
 19 20  2  0
  2 21  1  0
  7 22  1  0
  8 23  1  0
  8 24  1  0
  8 25  1  0
 11 26  1  0
 12 27  1  0
 13 28  1  0
 15 29  1  0
 16 30  1  0
 17 31  1  0
 19 32  1  0
 20 33  1  0
 34 39  1  0
 34 35  2  0
 35 36  1  0
 36 37  1  0
 37 38  1  0
 37 39  2  0
 38 40  1  0
 38 41  1  0
 38 42  1  0
  4 34  1  0
M  END
>  <attachment_point>  (503) 
21

>  <score>  (503) 
<NA>

$$$$
4djw
     RDKit          3D

 42 45  0  0  0  0  0  0  0  0999 V2000
   22.4950   11.8750   22.5810 C   0  0  0  0  0  0  0  0  0  0  0  0
   22.5380    9.4930   22.4640 N   0  0  0  0  0  0  0  0  0  0  0  0
   22.3600   13.0630   22.3480 O   0  0  0  0  0  0  0  0  0  0  0  0
   22.3390   10.6680   21.5610 C   0  0  2  0  0  0  0  0  0  0  0  0
   22.7860   11.3350   23.8120 N   0  0  0  0  0  0  0  0  0  0  0  0
   22.7800    9.9140   23.7010 C   0  0  0  0  0  0  0  0  0  0  0  0
   22.9970    9.1110   24.7490 N   0  0  0  0  0  0  0  0  0  0  0  0
   23.0220   12.1410   25.0180 C   0  0  0  0  0  0  0  0  0  0  0  0
   29.1260    9.8230   21.7090 N   0  0  0  0  0  0  0  0  0  0  0  0
   23.4880   10.6920   20.5300 C   0  0  0  0  0  0  0  0  0  0  0  0
   23.2110   10.7890   19.1730 C   0  0  0  0  0  0  0  0  0  0  0  0
   24.2350   10.8650   18.2430 C   0  0  0  0  0  0  0  0  0  0  0  0
   25.5500   10.8410   18.6560 C   0  0  0  0  0  0  0  0  0  0  0  0
   25.8710   10.7460   20.0070 C   0  0  0  0  0  0  0  0  0  0  0  0
   24.8260   10.6610   20.9430 C   0  0  0  0  0  0  0  0  0  0  0  0
   29.8540   10.9130   21.4510 C   0  0  0  0  0  0  0  0  0  0  0  0
   27.8830    9.7800   21.2080 C   0  0  0  0  0  0  0  0  0  0  0  0
   27.3000   10.8010   20.4650 C   0  0  0  0  0  0  0  0  0  0  0  0
   28.0930   11.9190   20.2200 C   0  0  0  0  0  0  0  0  0  0  0  0
   29.3850   11.9780   20.7130 C   0  0  0  0  0  0  0  0  0  0  0  0
    0.0000    0.0000    0.0000 H   0  0  0  0  0  0  0  0  0  0  0  0
    0.0000    0.0000    0.0000 H   0  0  0  0  0  0  0  0  0  0  0  0
    0.0000    0.0000    0.0000 H   0  0  0  0  0  0  0  0  0  0  0  0
    0.0000    0.0000    0.0000 H   0  0  0  0  0  0  0  0  0  0  0  0
    0.0000    0.0000    0.0000 H   0  0  0  0  0  0  0  0  0  0  0  0
    0.0000    0.0000    0.0000 H   0  0  0  0  0  0  0  0  0  0  0  0
    0.0000    0.0000    0.0000 H   0  0  0  0  0  0  0  0  0  0  0  0
    0.0000    0.0000    0.0000 H   0  0  0  0  0  0  0  0  0  0  0  0
    0.0000    0.0000    0.0000 H   0  0  0  0  0  0  0  0  0  0  0  0
    0.0000    0.0000    0.0000 H   0  0  0  0  0  0  0  0  0  0  0  0
    0.0000    0.0000    0.0000 H   0  0  0  0  0  0  0  0  0  0  0  0
    0.0000    0.0000    0.0000 H   0  0  0  0  0  0  0  0  0  0  0  0
    0.0000    0.0000    0.0000 H   0  0  0  0  0  0  0  0  0  0  0  0
   11.1695    5.3340   10.7805 C   0  0  0  0  0  0  0  0  0  0  0  0
   11.1695    5.3340   10.7805 N   0  0  0  0  0  0  0  0  0  0  0  0
   11.1695    5.3340   10.7805 C   0  0  0  0  0  0  0  0  0  0  0  0
   11.1695    5.3340   10.7805 C   0  0  0  0  0  0  0  0  0  0  0  0
   11.1695    5.3340   10.7805 N   0  0  0  0  0  0  0  0  0  0  0  0
   11.1695    5.3340   10.7805 O   0  0  0  0  0  0  0  0  0  0  0  0
   11.1695    5.3340   10.7805 H   0  0  0  0  0  0  0  0  0  0  0  0
   11.1695    5.3340   10.7805 H   0  0  0  0  0  0  0  0  0  0  0  0
   11.1695    5.3340   10.7805 H   0  0  0  0  0  0  0  0  0  0  0  0
  1  3  2  0
  1  4  1  0
  2  4  1  0
  1  5  1  0
  2  6  1  0
  5  6  1  0
  6  7  2  3
  5  8  1  0
  4 10  1  6
 10 11  2  0
 11 12  1  0
 12 13  2  0
 13 14  1  0
 10 15  1  0
 14 15  2  0
  9 16  2  0
  9 17  1  0
 14 18  1  0
 17 18  2  0
 18 19  1  0
 16 20  1  0
 19 20  2  0
  2 21  1  0
  7 22  1  0
  8 23  1  0
  8 24  1  0
  8 25  1  0
 11 26  1  0
 12 27  1  0
 13 28  1  0
 15 29  1  0
 16 30  1  0
 17 31  1  0
 19 32  1  0
 20 33  1  0
 34 39  1  0
 34 35  2  0
 35 36  1  0
 36 37  1  0
 36 38  2  0
 38 39  1  0
 37 40  1  0
 37 41  1  0
 37 42  1  0
  4 34  1  0
M  END
>  <attachment_point>  (504) 
21

>  <score>  (504) 
<NA>

$$$$
4djw
     RDKit          3D

 56 60  0  0  0  0  0  0  0  0999 V2000
   22.4950   11.8750   22.5810 C   0  0  0  0  0  0  0  0  0  0  0  0
   22.5380    9.4930   22.4640 N   0  0  0  0  0  0  0  0  0  0  0  0
   22.3600   13.0630   22.3480 O   0  0  0  0  0  0  0  0  0  0  0  0
   22.3390   10.6680   21.5610 C   0  0  2  0  0  0  0  0  0  0  0  0
   22.7860   11.3350   23.8120 N   0  0  0  0  0  0  0  0  0  0  0  0
   22.7800    9.9140   23.7010 C   0  0  0  0  0  0  0  0  0  0  0  0
   22.9970    9.1110   24.7490 N   0  0  0  0  0  0  0  0  0  0  0  0
   23.0220   12.1410   25.0180 C   0  0  0  0  0  0  0  0  0  0  0  0
   29.1260    9.8230   21.7090 N   0  0  0  0  0  0  0  0  0  0  0  0
   23.4880   10.6920   20.5300 C   0  0  0  0  0  0  0  0  0  0  0  0
   23.2110   10.7890   19.1730 C   0  0  0  0  0  0  0  0  0  0  0  0
   24.2350   10.8650   18.2430 C   0  0  0  0  0  0  0  0  0  0  0  0
   25.5500   10.8410   18.6560 C   0  0  0  0  0  0  0  0  0  0  0  0
   25.8710   10.7460   20.0070 C   0  0  0  0  0  0  0  0  0  0  0  0
   24.8260   10.6610   20.9430 C   0  0  0  0  0  0  0  0  0  0  0  0
   29.8540   10.9130   21.4510 C   0  0  0  0  0  0  0  0  0  0  0  0
   27.8830    9.7800   21.2080 C   0  0  0  0  0  0  0  0  0  0  0  0
   27.3000   10.8010   20.4650 C   0  0  0  0  0  0  0  0  0  0  0  0
   28.0930   11.9190   20.2200 C   0  0  0  0  0  0  0  0  0  0  0  0
   29.3850   11.9780   20.7130 C   0  0  0  0  0  0  0  0  0  0  0  0
    0.0000    0.0000    0.0000 H   0  0  0  0  0  0  0  0  0  0  0  0
    0.0000    0.0000    0.0000 H   0  0  0  0  0  0  0  0  0  0  0  0
    0.0000    0.0000    0.0000 H   0  0  0  0  0  0  0  0  0  0  0  0
    0.0000    0.0000    0.0000 H   0  0  0  0  0  0  0  0  0  0  0  0
    0.0000    0.0000    0.0000 H   0  0  0  0  0  0  0  0  0  0  0  0
    0.0000    0.0000    0.0000 H   0  0  0  0  0  0  0  0  0  0  0  0
    0.0000    0.0000    0.0000 H   0  0  0  0  0  0  0  0  0  0  0  0
    0.0000    0.0000    0.0000 H   0  0  0  0  0  0  0  0  0  0  0  0
    0.0000    0.0000    0.0000 H   0  0  0  0  0  0  0  0  0  0  0  0
    0.0000    0.0000    0.0000 H   0  0  0  0  0  0  0  0  0  0  0  0
    0.0000    0.0000    0.0000 H   0  0  0  0  0  0  0  0  0  0  0  0
    0.0000    0.0000    0.0000 H   0  0  0  0  0  0  0  0  0  0  0  0
    0.0000    0.0000    0.0000 H   0  0  0  0  0  0  0  0  0  0  0  0
   11.1695    5.3340   10.7805 N   0  0  0  0  0  0  0  0  0  0  0  0
   11.1695    5.3340   10.7805 C   0  0  0  0  0  0  0  0  0  0  0  0
   11.1695    5.3340   10.7805 C   0  0  0  0  0  0  0  0  0  0  0  0
   11.1695    5.3340   10.7805 N   0  0  0  0  0  0  0  0  0  0  0  0
   11.1695    5.3340   10.7805 C   0  0  0  0  0  0  0  0  0  0  0  0
   11.1695    5.3340   10.7805 N   0  0  0  0  0  0  0  0  0  0  0  0
   11.1695    5.3340   10.7805 C   0  0  0  0  0  0  0  0  0  0  0  0
   11.1695    5.3340   10.7805 C   0  0  0  0  0  0  0  0  0  0  0  0
   11.1695    5.3340   10.7805 C   0  0  0  0  0  0  0  0  0  0  0  0
   11.1695    5.3340   10.7805 N   0  0  0  0  0  0  0  0  0  0  0  0
   11.1695    5.3340   10.7805 C   0  0  0  0  0  0  0  0  0  0  0  0
   11.1695    5.3340   10.7805 C   0  0  0  0  0  0  0  0  0  0  0  0
   11.1695    5.3340   10.7805 H   0  0  0  0  0  0  0  0  0  0  0  0
   11.1695    5.3340   10.7805 H   0  0  0  0  0  0  0  0  0  0  0  0
   11.1695    5.3340   10.7805 H   0  0  0  0  0  0  0  0  0  0  0  0
   11.1695    5.3340   10.7805 H   0  0  0  0  0  0  0  0  0  0  0  0
   11.1695    5.3340   10.7805 H   0  0  0  0  0  0  0  0  0  0  0  0
   11.1695    5.3340   10.7805 H   0  0  0  0  0  0  0  0  0  0  0  0
   11.1695    5.3340   10.7805 H   0  0  0  0  0  0  0  0  0  0  0  0
   11.1695    5.3340   10.7805 H   0  0  0  0  0  0  0  0  0  0  0  0
   11.1695    5.3340   10.7805 H   0  0  0  0  0  0  0  0  0  0  0  0
   11.1695    5.3340   10.7805 H   0  0  0  0  0  0  0  0  0  0  0  0
   11.1695    5.3340   10.7805 H   0  0  0  0  0  0  0  0  0  0  0  0
  1  3  2  0
  1  4  1  0
  2  4  1  0
  1  5  1  0
  2  6  1  0
  5  6  1  0
  6  7  2  3
  5  8  1  0
  4 10  1  0
 10 11  2  0
 11 12  1  0
 12 13  2  0
 13 14  1  0
 10 15  1  0
 14 15  2  0
  9 16  2  0
  9 17  1  0
 14 18  1  0
 17 18  2  0
 18 19  1  0
 16 20  1  0
 19 20  2  0
  2 21  1  0
  7 22  1  0
  8 23  1  0
  8 24  1  0
  8 25  1  0
 11 26  1  0
 12 27  1  0
 13 28  1  0
 15 29  1  0
 16 30  1  0
 17 31  1  0
 19 32  1  0
 20 33  1  0
 34 45  1  0
 34 35  1  0
 35 36  1  0
 36 37  1  0
 37 38  1  0
 37 44  1  0
 38 43  1  0
 38 39  2  0
 39 40  1  0
 40 41  2  0
 41 42  1  0
 42 43  2  0
 44 45  1  0
 35 46  1  0
 35 47  1  0
 36 48  1  0
 36 49  1  0
 40 50  1  0
 41 51  1  0
 42 52  1  0
 44 53  1  0
 44 54  1  0
 45 55  1  0
 45 56  1  0
  4 34  1  6
M  END
>  <attachment_point>  (505) 
21

>  <score>  (505) 
<NA>

$$$$
4djw
     RDKit          3D

 48 52  0  0  0  0  0  0  0  0999 V2000
   22.4950   11.8750   22.5810 C   0  0  0  0  0  0  0  0  0  0  0  0
   22.5380    9.4930   22.4640 N   0  0  0  0  0  0  0  0  0  0  0  0
   22.3600   13.0630   22.3480 O   0  0  0  0  0  0  0  0  0  0  0  0
   22.3390   10.6680   21.5610 C   0  0  2  0  0  0  0  0  0  0  0  0
   22.7860   11.3350   23.8120 N   0  0  0  0  0  0  0  0  0  0  0  0
   22.7800    9.9140   23.7010 C   0  0  0  0  0  0  0  0  0  0  0  0
   22.9970    9.1110   24.7490 N   0  0  0  0  0  0  0  0  0  0  0  0
   23.0220   12.1410   25.0180 C   0  0  0  0  0  0  0  0  0  0  0  0
   29.1260    9.8230   21.7090 N   0  0  0  0  0  0  0  0  0  0  0  0
   23.4880   10.6920   20.5300 C   0  0  0  0  0  0  0  0  0  0  0  0
   23.2110   10.7890   19.1730 C   0  0  0  0  0  0  0  0  0  0  0  0
   24.2350   10.8650   18.2430 C   0  0  0  0  0  0  0  0  0  0  0  0
   25.5500   10.8410   18.6560 C   0  0  0  0  0  0  0  0  0  0  0  0
   25.8710   10.7460   20.0070 C   0  0  0  0  0  0  0  0  0  0  0  0
   24.8260   10.6610   20.9430 C   0  0  0  0  0  0  0  0  0  0  0  0
   29.8540   10.9130   21.4510 C   0  0  0  0  0  0  0  0  0  0  0  0
   27.8830    9.7800   21.2080 C   0  0  0  0  0  0  0  0  0  0  0  0
   27.3000   10.8010   20.4650 C   0  0  0  0  0  0  0  0  0  0  0  0
   28.0930   11.9190   20.2200 C   0  0  0  0  0  0  0  0  0  0  0  0
   29.3850   11.9780   20.7130 C   0  0  0  0  0  0  0  0  0  0  0  0
    0.0000    0.0000    0.0000 H   0  0  0  0  0  0  0  0  0  0  0  0
    0.0000    0.0000    0.0000 H   0  0  0  0  0  0  0  0  0  0  0  0
    0.0000    0.0000    0.0000 H   0  0  0  0  0  0  0  0  0  0  0  0
    0.0000    0.0000    0.0000 H   0  0  0  0  0  0  0  0  0  0  0  0
    0.0000    0.0000    0.0000 H   0  0  0  0  0  0  0  0  0  0  0  0
    0.0000    0.0000    0.0000 H   0  0  0  0  0  0  0  0  0  0  0  0
    0.0000    0.0000    0.0000 H   0  0  0  0  0  0  0  0  0  0  0  0
    0.0000    0.0000    0.0000 H   0  0  0  0  0  0  0  0  0  0  0  0
    0.0000    0.0000    0.0000 H   0  0  0  0  0  0  0  0  0  0  0  0
    0.0000    0.0000    0.0000 H   0  0  0  0  0  0  0  0  0  0  0  0
    0.0000    0.0000    0.0000 H   0  0  0  0  0  0  0  0  0  0  0  0
    0.0000    0.0000    0.0000 H   0  0  0  0  0  0  0  0  0  0  0  0
    0.0000    0.0000    0.0000 H   0  0  0  0  0  0  0  0  0  0  0  0
   11.1695    5.3340   10.7805 N   0  0  0  0  0  0  0  0  0  0  0  0
   11.1695    5.3340   10.7805 C   0  0  0  0  0  0  0  0  0  0  0  0
   11.1695    5.3340   10.7805 O   0  0  0  0  0  0  0  0  0  0  0  0
   11.1695    5.3340   10.7805 C   0  0  0  0  0  0  0  0  0  0  0  0
   11.1695    5.3340   10.7805 C   0  0  0  0  0  0  0  0  0  0  0  0
   11.1695    5.3340   10.7805 C   0  0  0  0  0  0  0  0  0  0  0  0
   11.1695    5.3340   10.7805 C   0  0  0  0  0  0  0  0  0  0  0  0
   11.1695    5.3340   10.7805 C   0  0  0  0  0  0  0  0  0  0  0  0
   11.1695    5.3340   10.7805 C   0  0  0  0  0  0  0  0  0  0  0  0
   11.1695    5.3340   10.7805 C   0  0  0  0  0  0  0  0  0  0  0  0
   11.1695    5.3340   10.7805 O   0  0  0  0  0  0  0  0  0  0  0  0
   11.1695    5.3340   10.7805 H   0  0  0  0  0  0  0  0  0  0  0  0
   11.1695    5.3340   10.7805 H   0  0  0  0  0  0  0  0  0  0  0  0
   11.1695    5.3340   10.7805 H   0  0  0  0  0  0  0  0  0  0  0  0
   11.1695    5.3340   10.7805 H   0  0  0  0  0  0  0  0  0  0  0  0
  1  3  2  0
  1  4  1  0
  2  4  1  0
  1  5  1  0
  2  6  1  0
  5  6  1  0
  6  7  2  3
  5  8  1  0
  4 10  1  0
 10 11  2  0
 11 12  1  0
 12 13  2  0
 13 14  1  0
 10 15  1  0
 14 15  2  0
  9 16  2  0
  9 17  1  0
 14 18  1  0
 17 18  2  0
 18 19  1  0
 16 20  1  0
 19 20  2  0
  2 21  1  0
  7 22  1  0
  8 23  1  0
  8 24  1  0
  8 25  1  0
 11 26  1  0
 12 27  1  0
 13 28  1  0
 15 29  1  0
 16 30  1  0
 17 31  1  0
 19 32  1  0
 20 33  1  0
 34 43  1  0
 34 35  1  0
 35 36  2  0
 35 37  1  0
 37 42  2  0
 37 38  1  0
 38 39  2  0
 39 40  1  0
 40 41  2  0
 41 42  1  0
 42 43  1  0
 43 44  2  0
 38 45  1  0
 39 46  1  0
 40 47  1  0
 41 48  1  0
  4 34  1  6
M  END
>  <attachment_point>  (506) 
21

>  <score>  (506) 
<NA>

$$$$
4djw
     RDKit          3D

 52 55  0  0  0  0  0  0  0  0999 V2000
   22.4950   11.8750   22.5810 C   0  0  0  0  0  0  0  0  0  0  0  0
   22.5380    9.4930   22.4640 N   0  0  0  0  0  0  0  0  0  0  0  0
   22.3600   13.0630   22.3480 O   0  0  0  0  0  0  0  0  0  0  0  0
   22.3390   10.6680   21.5610 C   0  0  2  0  0  0  0  0  0  0  0  0
   22.7860   11.3350   23.8120 N   0  0  0  0  0  0  0  0  0  0  0  0
   22.7800    9.9140   23.7010 C   0  0  0  0  0  0  0  0  0  0  0  0
   22.9970    9.1110   24.7490 N   0  0  0  0  0  0  0  0  0  0  0  0
   23.0220   12.1410   25.0180 C   0  0  0  0  0  0  0  0  0  0  0  0
   29.1260    9.8230   21.7090 N   0  0  0  0  0  0  0  0  0  0  0  0
   23.4880   10.6920   20.5300 C   0  0  0  0  0  0  0  0  0  0  0  0
   23.2110   10.7890   19.1730 C   0  0  0  0  0  0  0  0  0  0  0  0
   24.2350   10.8650   18.2430 C   0  0  0  0  0  0  0  0  0  0  0  0
   25.5500   10.8410   18.6560 C   0  0  0  0  0  0  0  0  0  0  0  0
   25.8710   10.7460   20.0070 C   0  0  0  0  0  0  0  0  0  0  0  0
   24.8260   10.6610   20.9430 C   0  0  0  0  0  0  0  0  0  0  0  0
   29.8540   10.9130   21.4510 C   0  0  0  0  0  0  0  0  0  0  0  0
   27.8830    9.7800   21.2080 C   0  0  0  0  0  0  0  0  0  0  0  0
   27.3000   10.8010   20.4650 C   0  0  0  0  0  0  0  0  0  0  0  0
   28.0930   11.9190   20.2200 C   0  0  0  0  0  0  0  0  0  0  0  0
   29.3850   11.9780   20.7130 C   0  0  0  0  0  0  0  0  0  0  0  0
    0.0000    0.0000    0.0000 H   0  0  0  0  0  0  0  0  0  0  0  0
    0.0000    0.0000    0.0000 H   0  0  0  0  0  0  0  0  0  0  0  0
    0.0000    0.0000    0.0000 H   0  0  0  0  0  0  0  0  0  0  0  0
    0.0000    0.0000    0.0000 H   0  0  0  0  0  0  0  0  0  0  0  0
    0.0000    0.0000    0.0000 H   0  0  0  0  0  0  0  0  0  0  0  0
    0.0000    0.0000    0.0000 H   0  0  0  0  0  0  0  0  0  0  0  0
    0.0000    0.0000    0.0000 H   0  0  0  0  0  0  0  0  0  0  0  0
    0.0000    0.0000    0.0000 H   0  0  0  0  0  0  0  0  0  0  0  0
    0.0000    0.0000    0.0000 H   0  0  0  0  0  0  0  0  0  0  0  0
    0.0000    0.0000    0.0000 H   0  0  0  0  0  0  0  0  0  0  0  0
    0.0000    0.0000    0.0000 H   0  0  0  0  0  0  0  0  0  0  0  0
    0.0000    0.0000    0.0000 H   0  0  0  0  0  0  0  0  0  0  0  0
    0.0000    0.0000    0.0000 H   0  0  0  0  0  0  0  0  0  0  0  0
   11.1695    5.3340   10.7805 C   0  0  0  0  0  0  0  0  0  0  0  0
   11.1695    5.3340   10.7805 N   0  0  0  0  0  0  0  0  0  0  0  0
   11.1695    5.3340   10.7805 C   0  0  0  0  0  0  0  0  0  0  0  0
   11.1695    5.3340   10.7805 C   0  0  0  0  0  0  0  0  0  0  0  0
   11.1695    5.3340   10.7805 C   0  0  0  0  0  0  0  0  0  0  0  0
   11.1695    5.3340   10.7805 C   0  0  0  0  0  0  0  0  0  0  0  0
   11.1695    5.3340   10.7805 C   0  0  0  0  0  0  0  0  0  0  0  0
   11.1695    5.3340   10.7805 C   0  0  0  0  0  0  0  0  0  0  0  0
   11.1695    5.3340   10.7805 C   0  0  0  0  0  0  0  0  0  0  0  0
   11.1695    5.3340   10.7805 H   0  0  0  0  0  0  0  0  0  0  0  0
   11.1695    5.3340   10.7805 H   0  0  0  0  0  0  0  0  0  0  0  0
   11.1695    5.3340   10.7805 H   0  0  0  0  0  0  0  0  0  0  0  0
   11.1695    5.3340   10.7805 H   0  0  0  0  0  0  0  0  0  0  0  0
   11.1695    5.3340   10.7805 H   0  0  0  0  0  0  0  0  0  0  0  0
   11.1695    5.3340   10.7805 H   0  0  0  0  0  0  0  0  0  0  0  0
   11.1695    5.3340   10.7805 H   0  0  0  0  0  0  0  0  0  0  0  0
   11.1695    5.3340   10.7805 H   0  0  0  0  0  0  0  0  0  0  0  0
   11.1695    5.3340   10.7805 H   0  0  0  0  0  0  0  0  0  0  0  0
   11.1695    5.3340   10.7805 H   0  0  0  0  0  0  0  0  0  0  0  0
  1  3  2  0
  1  4  1  0
  2  4  1  0
  1  5  1  0
  2  6  1  0
  5  6  1  0
  6  7  2  3
  5  8  1  0
  4 10  1  0
 10 11  2  0
 11 12  1  0
 12 13  2  0
 13 14  1  0
 10 15  1  0
 14 15  2  0
  9 16  2  0
  9 17  1  0
 14 18  1  0
 17 18  2  0
 18 19  1  0
 16 20  1  0
 19 20  2  0
  2 21  1  0
  7 22  1  0
  8 23  1  0
  8 24  1  0
  8 25  1  0
 11 26  1  0
 12 27  1  0
 13 28  1  0
 15 29  1  0
 16 30  1  0
 17 31  1  0
 19 32  1  0
 20 33  1  0
 34 35  1  0
 35 36  1  0
 35 37  1  0
 37 42  1  0
 37 38  2  0
 38 39  1  0
 39 40  2  0
 40 41  1  0
 41 42  2  0
 34 43  1  0
 34 44  1  0
 36 45  1  0
 36 46  1  0
 36 47  1  0
 38 48  1  0
 39 49  1  0
 40 50  1  0
 41 51  1  0
 42 52  1  0
  4 34  1  6
M  END
>  <attachment_point>  (507) 
21

>  <score>  (507) 
<NA>

$$$$
4djw
     RDKit          3D

 44 47  0  0  0  0  0  0  0  0999 V2000
   22.4950   11.8750   22.5810 C   0  0  0  0  0  0  0  0  0  0  0  0
   22.5380    9.4930   22.4640 N   0  0  0  0  0  0  0  0  0  0  0  0
   22.3600   13.0630   22.3480 O   0  0  0  0  0  0  0  0  0  0  0  0
   22.3390   10.6680   21.5610 C   0  0  2  0  0  0  0  0  0  0  0  0
   22.7860   11.3350   23.8120 N   0  0  0  0  0  0  0  0  0  0  0  0
   22.7800    9.9140   23.7010 C   0  0  0  0  0  0  0  0  0  0  0  0
   22.9970    9.1110   24.7490 N   0  0  0  0  0  0  0  0  0  0  0  0
   23.0220   12.1410   25.0180 C   0  0  0  0  0  0  0  0  0  0  0  0
   29.1260    9.8230   21.7090 N   0  0  0  0  0  0  0  0  0  0  0  0
   23.4880   10.6920   20.5300 C   0  0  0  0  0  0  0  0  0  0  0  0
   23.2110   10.7890   19.1730 C   0  0  0  0  0  0  0  0  0  0  0  0
   24.2350   10.8650   18.2430 C   0  0  0  0  0  0  0  0  0  0  0  0
   25.5500   10.8410   18.6560 C   0  0  0  0  0  0  0  0  0  0  0  0
   25.8710   10.7460   20.0070 C   0  0  0  0  0  0  0  0  0  0  0  0
   24.8260   10.6610   20.9430 C   0  0  0  0  0  0  0  0  0  0  0  0
   29.8540   10.9130   21.4510 C   0  0  0  0  0  0  0  0  0  0  0  0
   27.8830    9.7800   21.2080 C   0  0  0  0  0  0  0  0  0  0  0  0
   27.3000   10.8010   20.4650 C   0  0  0  0  0  0  0  0  0  0  0  0
   28.0930   11.9190   20.2200 C   0  0  0  0  0  0  0  0  0  0  0  0
   29.3850   11.9780   20.7130 C   0  0  0  0  0  0  0  0  0  0  0  0
    0.0000    0.0000    0.0000 H   0  0  0  0  0  0  0  0  0  0  0  0
    0.0000    0.0000    0.0000 H   0  0  0  0  0  0  0  0  0  0  0  0
    0.0000    0.0000    0.0000 H   0  0  0  0  0  0  0  0  0  0  0  0
    0.0000    0.0000    0.0000 H   0  0  0  0  0  0  0  0  0  0  0  0
    0.0000    0.0000    0.0000 H   0  0  0  0  0  0  0  0  0  0  0  0
    0.0000    0.0000    0.0000 H   0  0  0  0  0  0  0  0  0  0  0  0
    0.0000    0.0000    0.0000 H   0  0  0  0  0  0  0  0  0  0  0  0
    0.0000    0.0000    0.0000 H   0  0  0  0  0  0  0  0  0  0  0  0
    0.0000    0.0000    0.0000 H   0  0  0  0  0  0  0  0  0  0  0  0
    0.0000    0.0000    0.0000 H   0  0  0  0  0  0  0  0  0  0  0  0
    0.0000    0.0000    0.0000 H   0  0  0  0  0  0  0  0  0  0  0  0
    0.0000    0.0000    0.0000 H   0  0  0  0  0  0  0  0  0  0  0  0
    0.0000    0.0000    0.0000 H   0  0  0  0  0  0  0  0  0  0  0  0
    7.8760    3.7612    7.6017 H   0  0  0  0  0  0  0  0  0  0  0  0
    9.7970    7.1269    9.8614 H   0  0  0  0  0  0  0  0  0  0  0  0
   11.2423    2.9204   10.4452 H   0  0  0  0  0  0  0  0  0  0  0  0
    9.4799    2.0788    8.7441 H   0  0  0  0  0  0  0  0  0  0  0  0
    8.0345    6.2852    8.1604 H   0  0  0  0  0  0  0  0  0  0  0  0
   10.6591    5.0903   10.2879 C   0  0  0  0  0  0  0  0  0  0  0  0
    9.7303    6.0646    9.6263 C   0  0  0  0  0  0  0  0  0  0  0  0
    8.7095    5.5772    8.6411 C   0  0  0  0  0  0  0  0  0  0  0  0
    8.6177    4.1154    8.3176 C   0  0  0  0  0  0  0  0  0  0  0  0
    9.5466    3.1411    8.9792 C   0  0  0  0  0  0  0  0  0  0  0  0
   10.5673    3.6285    9.9644 C   0  0  0  0  0  0  0  0  0  0  0  0
  1  3  2  0
  1  4  1  0
  2  4  1  0
  1  5  1  0
  2  6  1  0
  5  6  1  0
  6  7  2  3
  5  8  1  0
  4 10  1  6
 10 11  2  0
 11 12  1  0
 12 13  2  0
 13 14  1  0
 10 15  1  0
 14 15  2  0
  9 16  2  0
  9 17  1  0
 14 18  1  0
 17 18  2  0
 18 19  1  0
 16 20  1  0
 19 20  2  0
  2 21  1  0
  7 22  1  0
  8 23  1  0
  8 24  1  0
  8 25  1  0
 11 26  1  0
 12 27  1  0
 13 28  1  0
 15 29  1  0
 16 30  1  0
 17 31  1  0
 19 32  1  0
 20 33  1  0
 39 40  2  0
 35 40  1  0
 40 41  1  0
 38 41  1  0
 41 42  2  0
 34 42  1  0
 42 43  1  0
 37 43  1  0
 43 44  2  0
 36 44  1  0
 39 44  1  0
  4 39  1  0
M  END
>  <attachment_point>  (508) 
21

>  <score>  (508) 
<NA>

$$$$
