
     RDKit          3D

 49 53  0  0  0  0  0  0  0  0999 V2000
   16.1272   -8.4908   -1.6107 H   0  0  0  0  0  0  0  0  0  0  0  0
   15.8544   -7.4476   -1.4688 C   0  0  0  0  0  0  0  0  0  0  0  0
   16.7263   -6.5882   -0.7976 C   0  0  0  0  0  0  0  0  0  0  0  0
   17.6764   -6.9549   -0.4202 H   0  0  0  0  0  0  0  0  0  0  0  0
   16.3831   -5.2453   -0.6072 C   0  0  0  0  0  0  0  0  0  0  0  0
   17.0704   -4.5979   -0.0714 H   0  0  0  0  0  0  0  0  0  0  0  0
   15.1631   -4.7225   -1.0711 C   0  0  0  0  0  0  0  0  0  0  0  0
   14.8072   -3.2527   -0.7869 C   0  0  0  0  0  0  0  0  0  0  0  0
   15.3887   -2.2477   -1.7836 C   0  0  0  0  0  0  0  0  0  0  0  0
   15.9445   -2.6433   -3.0129 C   0  0  0  0  0  0  0  0  0  0  0  0
   16.0083   -3.6955   -3.2705 H   0  0  0  0  0  0  0  0  0  0  0  0
   16.4233   -1.6917   -3.9226 C   0  0  0  0  0  0  0  0  0  0  0  0
   16.8630   -2.0062   -4.8623 H   0  0  0  0  0  0  0  0  0  0  0  0
   16.3414   -0.3297   -3.6306 C   0  0  0  0  0  0  0  0  0  0  0  0
   16.7132    0.4012   -4.3429 H   0  0  0  0  0  0  0  0  0  0  0  0
   15.7920    0.0971   -2.4179 C   0  0  0  0  0  0  0  0  0  0  0  0
   15.7086    1.5325   -2.1075 C   0  0  0  0  0  0  0  0  0  0  0  0
   15.3752    2.4876   -3.0967 C   0  0  0  0  0  0  0  0  0  0  0  0
   15.1587    2.1657   -4.1084 H   0  0  0  0  0  0  0  0  0  0  0  0
   15.2886    3.8576   -2.7905 C   0  0  0  0  0  0  0  0  0  0  0  0
   15.0161    4.5935   -3.5480 H   0  0  0  0  0  0  0  0  0  0  0  0
   15.5524    4.2613   -1.4799 C   0  0  0  0  0  0  0  0  0  0  0  0
   15.5577    5.5441   -0.8097 C   0  0  0  0  0  0  0  0  0  0  0  0
   15.3415    6.4764   -1.3200 H   0  0  0  0  0  0  0  0  0  0  0  0
   15.8669    5.4251    0.4661 N   0  0  0  0  0  0  0  0  0  0  0  0
   16.0729    4.0824    0.6391 N   0  0  0  0  0  0  0  0  0  0  0  0
   16.3293    3.6451    1.5219 H   0  0  0  0  0  0  0  0  0  0  0  0
   15.8826    3.3478   -0.5141 C   0  0  0  0  0  0  0  0  0  0  0  0
   15.9624    1.9867   -0.7992 C   0  0  0  0  0  0  0  0  0  0  0  0
   16.2359    1.3134    0.0068 H   0  0  0  0  0  0  0  0  0  0  0  0
   15.3257   -0.8670   -1.5061 C   0  0  0  0  0  0  0  0  0  0  0  0
   14.8905   -0.5319   -0.5688 H   0  0  0  0  0  0  0  0  0  0  0  0
   13.2927   -3.0184   -0.6099 C   0  0  0  0  0  0  0  0  0  0  0  0
   12.4221   -3.0786   -1.4797 O   0  0  0  0  0  0  0  0  0  0  0  0
   13.0206   -2.6687    0.6989 N   0  0  0  0  0  0  0  0  0  0  0  0
   11.7188   -2.3125    1.2626 C   0  0  0  0  0  0  0  0  0  0  0  0
   10.9151   -2.4758    0.5374 H   0  0  0  0  0  0  0  0  0  0  0  0
   11.6930   -1.2597    1.5593 H   0  0  0  0  0  0  0  0  0  0  0  0
   11.5009   -2.9203    2.1451 H   0  0  0  0  0  0  0  0  0  0  0  0
   14.2230   -2.6314    1.3650 C   0  0  0  0  0  0  0  0  0  0  0  0
   14.3903   -2.3390    2.6904 N   0  0  0  0  0  0  0  0  0  0  0  0
   15.3255   -2.3586    3.0970 H   0  0  0  0  0  0  0  0  0  0  0  0
   13.5792   -2.1267    3.2675 H   0  0  0  0  0  0  0  0  0  0  0  0
   15.2175   -2.9072    0.5919 N   0  0  0  0  0  4  0  0  0  0  0  0
   16.1915   -2.8954    0.8965 H   0  0  0  0  0  0  0  0  0  0  0  0
   14.2989   -5.5991   -1.7688 C   0  0  0  0  0  0  0  0  0  0  0  0
   13.3523   -5.2496   -2.1713 H   0  0  0  0  0  0  0  0  0  0  0  0
   14.6427   -6.9502   -1.9600 C   0  0  0  0  0  0  0  0  0  0  0  0
   13.9731   -7.6231   -2.4890 H   0  0  0  0  0  0  0  0  0  0  0  0
  1  2  1  0
  2  3  2  0
  3  4  1  0
  3  5  1  0
  5  6  1  0
  5  7  2  0
  7  8  1  0
  8  9  1  0
  9 10  2  0
 10 11  1  0
 10 12  1  0
 12 13  1  0
 12 14  2  0
 14 15  1  0
 14 16  1  0
 16 17  1  0
 17 18  2  0
 18 19  1  0
 18 20  1  0
 20 21  1  0
 20 22  2  0
 22 23  1  0
 23 24  1  0
 23 25  2  0
 25 26  1  0
 26 27  1  0
 26 28  1  0
 28 29  2  0
 29 30  1  0
 16 31  2  0
 31 32  1  0
  8 33  1  0
 33 34  2  0
 33 35  1  0
 35 36  1  0
 36 37  1  0
 36 38  1  0
 36 39  1  0
 35 40  1  0
 40 41  1  0
 41 42  1  0
 41 43  1  0
 40 44  2  0
 44 45  1  0
  7 46  1  0
 46 47  1  0
 46 48  2  0
 48 49  1  0
 48  2  1  0
 44  8  1  0
 31  9  1  0
 29 17  1  0
 28 22  1  0
M  CHG  1  44   1
M  END
>  <score>  (1) 
6.67281

$$$$

     RDKit          3D

 50 54  0  0  0  0  0  0  0  0999 V2000
   16.1030   -8.4601   -1.6710 H   0  0  0  0  0  0  0  0  0  0  0  0
   15.8255   -7.4188   -1.5326 C   0  0  0  0  0  0  0  0  0  0  0  0
   16.7071   -6.5530   -0.8774 C   0  0  0  0  0  0  0  0  0  0  0  0
   17.6684   -6.9133   -0.5132 H   0  0  0  0  0  0  0  0  0  0  0  0
   16.3443   -5.2168   -0.6732 C   0  0  0  0  0  0  0  0  0  0  0  0
   17.0327   -4.5478   -0.1632 H   0  0  0  0  0  0  0  0  0  0  0  0
   15.0972   -4.7250   -1.0948 C   0  0  0  0  0  0  0  0  0  0  0  0
   14.7315   -3.2704   -0.7891 C   0  0  0  0  0  0  0  0  0  0  0  0
   15.3723   -2.2773   -1.7483 C   0  0  0  0  0  0  0  0  0  0  0  0
   15.9150   -2.6853   -2.9757 C   0  0  0  0  0  0  0  0  0  0  0  0
   15.9541   -3.7425   -3.2213 H   0  0  0  0  0  0  0  0  0  0  0  0
   16.3892   -1.7400   -3.8908 C   0  0  0  0  0  0  0  0  0  0  0  0
   16.8220   -2.0630   -4.8315 H   0  0  0  0  0  0  0  0  0  0  0  0
   16.3114   -0.3743   -3.5962 C   0  0  0  0  0  0  0  0  0  0  0  0
   16.6781    0.3580   -4.3082 H   0  0  0  0  0  0  0  0  0  0  0  0
   15.7755    0.0640   -2.3786 C   0  0  0  0  0  0  0  0  0  0  0  0
   15.6895    1.5012   -2.0683 C   0  0  0  0  0  0  0  0  0  0  0  0
   15.3883    2.4399   -3.0779 C   0  0  0  0  0  0  0  0  0  0  0  0
   15.2194    2.1002   -4.0964 H   0  0  0  0  0  0  0  0  0  0  0  0
   15.2683    3.8044   -2.7709 C   0  0  0  0  0  0  0  0  0  0  0  0
   15.0048    4.5331   -3.5289 H   0  0  0  0  0  0  0  0  0  0  0  0
   15.4829    4.2279   -1.4603 C   0  0  0  0  0  0  0  0  0  0  0  0
   15.4334    5.5373   -0.8403 C   0  0  0  0  0  0  0  0  0  0  0  0
   15.1997    6.4641   -1.3437 H   0  0  0  0  0  0  0  0  0  0  0  0
   15.7342    5.3837    0.4893 C   0  0  0  0  0  0  0  0  0  0  0  0
   15.7873    6.1767    1.2300 H   0  0  0  0  0  0  0  0  0  0  0  0
   15.9704    4.0302    0.7086 N   0  0  0  0  0  0  0  0  0  0  0  0
   16.2295    3.6127    1.6000 H   0  0  0  0  0  0  0  0  0  0  0  0
   15.8062    3.3163   -0.4670 C   0  0  0  0  0  0  0  0  0  0  0  0
   15.9005    1.9551   -0.7524 C   0  0  0  0  0  0  0  0  0  0  0  0
   16.1425    1.2543    0.0399 H   0  0  0  0  0  0  0  0  0  0  0  0
   15.3217   -0.8997   -1.4638 C   0  0  0  0  0  0  0  0  0  0  0  0
   14.8863   -0.5698   -0.5254 H   0  0  0  0  0  0  0  0  0  0  0  0
   13.2189   -2.9790   -0.7178 C   0  0  0  0  0  0  0  0  0  0  0  0
   12.3807   -3.2413   -1.5804 O   0  0  0  0  0  0  0  0  0  0  0  0
   12.9029   -2.3946    0.4927 N   0  0  0  0  0  0  0  0  0  0  0  0
   11.5604   -2.2107    1.0363 C   0  0  0  0  0  0  0  0  0  0  0  0
   11.4178   -2.9258    1.8505 H   0  0  0  0  0  0  0  0  0  0  0  0
   10.7909   -2.3862    0.2712 H   0  0  0  0  0  0  0  0  0  0  0  0
   11.4253   -1.1986    1.4379 H   0  0  0  0  0  0  0  0  0  0  0  0
   14.0327   -2.5118    1.2612 C   0  0  0  0  0  0  0  0  0  0  0  0
   14.1098   -2.2695    2.5937 N   0  0  0  0  0  0  0  0  0  0  0  0
   13.3310   -1.8306    3.0883 H   0  0  0  0  0  0  0  0  0  0  0  0
   14.9775   -2.4988    3.0688 H   0  0  0  0  0  0  0  0  0  0  0  0
   15.0650   -2.9437    0.6152 N   0  0  0  0  0  4  0  0  0  0  0  0
   15.9725   -3.1148    1.0485 H   0  0  0  0  0  0  0  0  0  0  0  0
   14.2416   -5.5965   -1.8035 C   0  0  0  0  0  0  0  0  0  0  0  0
   13.2871   -5.2483   -2.1856 H   0  0  0  0  0  0  0  0  0  0  0  0
   14.6032   -6.9371   -2.0183 C   0  0  0  0  0  0  0  0  0  0  0  0
   13.9400   -7.6169   -2.5493 H   0  0  0  0  0  0  0  0  0  0  0  0
  1  2  1  0
  2  3  2  0
  3  4  1  0
  3  5  1  0
  5  6  1  0
  5  7  2  0
  7  8  1  0
  8  9  1  0
  9 10  2  0
 10 11  1  0
 10 12  1  0
 12 13  1  0
 12 14  2  0
 14 15  1  0
 14 16  1  0
 16 17  1  0
 17 18  2  0
 18 19  1  0
 18 20  1  0
 20 21  1  0
 20 22  2  0
 22 23  1  0
 23 24  1  0
 23 25  2  0
 25 26  1  0
 25 27  1  0
 27 28  1  0
 27 29  1  0
 29 30  2  0
 30 31  1  0
 16 32  2  0
 32 33  1  0
  8 34  1  0
 34 35  2  0
 34 36  1  0
 36 37  1  0
 37 38  1  0
 37 39  1  0
 37 40  1  0
 36 41  1  0
 41 42  1  0
 42 43  1  0
 42 44  1  0
 41 45  2  0
 45 46  1  0
  7 47  1  0
 47 48  1  0
 47 49  2  0
 49 50  1  0
 49  2  1  0
 45  8  1  0
 32  9  1  0
 30 17  1  0
 29 22  1  0
M  CHG  1  45   1
M  END
>  <score>  (2) 
6.60002

$$$$

     RDKit          3D

 51 54  0  0  0  0  0  0  0  0999 V2000
   16.0943   -8.4120   -1.6724 H   0  0  0  0  0  0  0  0  0  0  0  0
   15.8641   -7.3644   -1.5009 C   0  0  0  0  0  0  0  0  0  0  0  0
   16.7681   -6.5513   -0.8094 C   0  0  0  0  0  0  0  0  0  0  0  0
   17.7070   -6.9600   -0.4488 H   0  0  0  0  0  0  0  0  0  0  0  0
   16.4610   -5.2078   -0.5682 C   0  0  0  0  0  0  0  0  0  0  0  0
   17.1696   -4.5829   -0.0316 H   0  0  0  0  0  0  0  0  0  0  0  0
   15.2421   -4.6609   -0.9995 C   0  0  0  0  0  0  0  0  0  0  0  0
   14.8825   -3.2122   -0.6869 C   0  0  0  0  0  0  0  0  0  0  0  0
   15.4070   -2.2102   -1.7129 C   0  0  0  0  0  0  0  0  0  0  0  0
   15.9981   -2.6307   -2.9157 C   0  0  0  0  0  0  0  0  0  0  0  0
   16.1041   -3.6942   -3.1085 H   0  0  0  0  0  0  0  0  0  0  0  0
   16.4291   -1.7038   -3.8704 C   0  0  0  0  0  0  0  0  0  0  0  0
   16.9060   -2.0516   -4.7821 H   0  0  0  0  0  0  0  0  0  0  0  0
   16.2076   -0.3379   -3.6624 C   0  0  0  0  0  0  0  0  0  0  0  0
   16.5219    0.3807   -4.4120 H   0  0  0  0  0  0  0  0  0  0  0  0
   15.5635    0.1096   -2.5039 C   0  0  0  0  0  0  0  0  0  0  0  0
   15.1976    1.4347   -2.4133 O   0  0  0  0  0  0  0  0  0  0  0  0
   15.3915    2.0901   -1.2227 C   0  0  0  0  0  0  0  0  0  0  0  0
   14.6964    3.2818   -0.9698 C   0  0  0  0  0  0  0  0  0  0  0  0
   13.9355    3.6274   -1.6664 H   0  0  0  0  0  0  0  0  0  0  0  0
   15.0222    4.0477    0.1565 C   0  0  0  0  0  0  0  0  0  0  0  0
   14.5364    4.9924    0.3568 H   0  0  0  0  0  0  0  0  0  0  0  0
   16.0136    3.6354    1.0486 C   0  0  0  0  0  0  0  0  0  0  0  0
   16.3601    4.3999    2.1287 O   0  0  0  0  0  0  0  0  0  0  0  0
   15.2756    5.0912    2.7681 C   0  0  0  0  0  0  0  0  0  0  0  0
   15.1955    6.1146    2.3937 H   0  0  0  0  0  0  0  0  0  0  0  0
   15.4724    5.1370    3.8408 H   0  0  0  0  0  0  0  0  0  0  0  0
   14.3154    4.5817    2.6166 H   0  0  0  0  0  0  0  0  0  0  0  0
   16.6802    2.4312    0.8114 C   0  0  0  0  0  0  0  0  0  0  0  0
   17.4785    2.1236    1.4773 H   0  0  0  0  0  0  0  0  0  0  0  0
   16.3395    1.6450   -0.2961 C   0  0  0  0  0  0  0  0  0  0  0  0
   16.8264    0.6980   -0.5064 H   0  0  0  0  0  0  0  0  0  0  0  0
   15.2117   -0.8257   -1.5180 C   0  0  0  0  0  0  0  0  0  0  0  0
   14.7417   -0.4519   -0.6135 H   0  0  0  0  0  0  0  0  0  0  0  0
   13.3630   -3.0254   -0.5218 C   0  0  0  0  0  0  0  0  0  0  0  0
   12.4979   -3.1924   -1.3812 O   0  0  0  0  0  0  0  0  0  0  0  0
   13.0831   -2.6307    0.7707 N   0  0  0  0  0  0  0  0  0  0  0  0
   11.7662   -2.2924    1.3092 C   0  0  0  0  0  0  0  0  0  0  0  0
   10.9817   -2.4775    0.5655 H   0  0  0  0  0  0  0  0  0  0  0  0
   11.5406   -2.8968    2.1955 H   0  0  0  0  0  0  0  0  0  0  0  0
   11.7282   -1.2330    1.5865 H   0  0  0  0  0  0  0  0  0  0  0  0
   14.2857   -2.5600    1.4407 C   0  0  0  0  0  0  0  0  0  0  0  0
   14.4535   -2.2256    2.7530 N   0  0  0  0  0  0  0  0  0  0  0  0
   13.6387   -2.0860    3.3469 H   0  0  0  0  0  0  0  0  0  0  0  0
   15.3872   -2.2743    3.1577 H   0  0  0  0  0  0  0  0  0  0  0  0
   15.2930   -2.8639    0.6917 N   0  0  0  0  0  4  0  0  0  0  0  0
   16.2482   -2.9659    1.0423 H   0  0  0  0  0  0  0  0  0  0  0  0
   14.3544   -5.4819   -1.7197 C   0  0  0  0  0  0  0  0  0  0  0  0
   13.4138   -5.0789   -2.0832 H   0  0  0  0  0  0  0  0  0  0  0  0
   14.6601   -6.8256   -1.9642 C   0  0  0  0  0  0  0  0  0  0  0  0
   13.9569   -7.4507   -2.5062 H   0  0  0  0  0  0  0  0  0  0  0  0
  1  2  1  0
  2  3  2  0
  3  4  1  0
  3  5  1  0
  5  6  1  0
  5  7  2  0
  7  8  1  0
  8  9  1  0
  9 10  2  0
 10 11  1  0
 10 12  1  0
 12 13  1  0
 12 14  2  0
 14 15  1  0
 14 16  1  0
 16 17  1  0
 17 18  1  0
 18 19  2  0
 19 20  1  0
 19 21  1  0
 21 22  1  0
 21 23  2  0
 23 24  1  0
 24 25  1  0
 25 26  1  0
 25 27  1  0
 25 28  1  0
 23 29  1  0
 29 30  1  0
 29 31  2  0
 31 32  1  0
 16 33  2  0
 33 34  1  0
  8 35  1  0
 35 36  2  0
 35 37  1  0
 37 38  1  0
 38 39  1  0
 38 40  1  0
 38 41  1  0
 37 42  1  0
 42 43  1  0
 43 44  1  0
 43 45  1  0
 42 46  2  0
 46 47  1  0
  7 48  1  0
 48 49  1  0
 48 50  2  0
 50 51  1  0
 50  2  1  0
 46  8  1  0
 33  9  1  0
 31 18  1  0
M  CHG  1  46   1
M  END
>  <score>  (3) 
6.59288

$$$$

     RDKit          3D

 49 52  0  0  0  0  0  0  0  0999 V2000
   16.1459   -8.3037   -1.7165 H   0  0  0  0  0  0  0  0  0  0  0  0
   15.9122   -7.2643   -1.5106 C   0  0  0  0  0  0  0  0  0  0  0  0
   16.8110   -6.4722   -0.7914 C   0  0  0  0  0  0  0  0  0  0  0  0
   17.7481   -6.8943   -0.4416 H   0  0  0  0  0  0  0  0  0  0  0  0
   16.5027   -5.1344   -0.5190 C   0  0  0  0  0  0  0  0  0  0  0  0
   17.2084   -4.5272    0.0413 H   0  0  0  0  0  0  0  0  0  0  0  0
   15.2868   -4.5749   -0.9530 C   0  0  0  0  0  0  0  0  0  0  0  0
   14.9283   -3.1184   -0.6572 C   0  0  0  0  0  0  0  0  0  0  0  0
   15.4573   -2.1498   -1.7121 C   0  0  0  0  0  0  0  0  0  0  0  0
   16.0086   -2.6602   -2.9006 C   0  0  0  0  0  0  0  0  0  0  0  0
   16.0744   -3.7351   -3.0608 H   0  0  0  0  0  0  0  0  0  0  0  0
   16.4797   -1.7982   -3.8877 C   0  0  0  0  0  0  0  0  0  0  0  0
   16.9138   -2.1790   -4.8045 H   0  0  0  0  0  0  0  0  0  0  0  0
   16.3921   -0.4253   -3.7172 C   0  0  0  0  0  0  0  0  0  0  0  0
   16.7658    0.2053   -4.5214 H   0  0  0  0  0  0  0  0  0  0  0  0
   15.8212    0.1240   -2.5633 C   0  0  0  0  0  0  0  0  0  0  0  0
   15.6621    1.9484   -2.5731 S   0  0  0  0  0  0  0  0  0  0  0  0
   14.5738    2.3201   -3.5000 O   0  0  0  0  0  0  0  0  0  0  0  0
   16.9180    2.5360   -3.0696 O   0  0  0  0  0  0  0  0  0  0  0  0
   15.3368    2.5925   -0.8975 C   0  0  0  0  0  0  0  0  0  0  0  0
   14.0639    3.0835   -0.5903 C   0  0  0  0  0  0  0  0  0  0  0  0
   13.2350    2.9546   -1.2787 H   0  0  0  0  0  0  0  0  0  0  0  0
   13.8465    3.8144    0.5733 C   0  0  0  0  0  0  0  0  0  0  0  0
   12.8652    4.2420    0.7421 H   0  0  0  0  0  0  0  0  0  0  0  0
   14.8894    4.0398    1.4730 C   0  0  0  0  0  0  0  0  0  0  0  0
   14.6348    5.0259    2.8958 Cl  0  0  0  0  0  0  0  0  0  0  0  0
   16.1515    3.5070    1.1949 C   0  0  0  0  0  0  0  0  0  0  0  0
   16.9590    3.6858    1.8966 H   0  0  0  0  0  0  0  0  0  0  0  0
   16.3857    2.8030    0.0090 C   0  0  0  0  0  0  0  0  0  0  0  0
   17.3978    2.4799   -0.2256 H   0  0  0  0  0  0  0  0  0  0  0  0
   15.3592   -0.7457   -1.5495 C   0  0  0  0  0  0  0  0  0  0  0  0
   14.9113   -0.3614   -0.6348 H   0  0  0  0  0  0  0  0  0  0  0  0
   13.4088   -2.9475   -0.4297 C   0  0  0  0  0  0  0  0  0  0  0  0
   12.5084   -3.1168   -1.2474 O   0  0  0  0  0  0  0  0  0  0  0  0
   13.1803   -2.6014    0.8854 N   0  0  0  0  0  0  0  0  0  0  0  0
   11.8972   -2.2698    1.5000 C   0  0  0  0  0  0  0  0  0  0  0  0
   11.8895   -2.5592    2.5562 H   0  0  0  0  0  0  0  0  0  0  0  0
   11.0832   -2.8032    0.9994 H   0  0  0  0  0  0  0  0  0  0  0  0
   11.7061   -1.1929    1.4360 H   0  0  0  0  0  0  0  0  0  0  0  0
   14.4083   -2.4994    1.4860 C   0  0  0  0  0  0  0  0  0  0  0  0
   14.6031   -2.2025    2.7959 N   0  0  0  0  0  0  0  0  0  0  0  0
   15.5252   -2.4097    3.1677 H   0  0  0  0  0  0  0  0  0  0  0  0
   13.8044   -2.2938    3.4194 H   0  0  0  0  0  0  0  0  0  0  0  0
   15.3950   -2.7389    0.6871 N   0  0  0  0  0  4  0  0  0  0  0  0
   16.3712   -2.7749    0.9841 H   0  0  0  0  0  0  0  0  0  0  0  0
   14.3992   -5.3824   -1.6865 C   0  0  0  0  0  0  0  0  0  0  0  0
   13.4594   -4.9684   -2.0408 H   0  0  0  0  0  0  0  0  0  0  0  0
   14.7069   -6.7190   -1.9591 C   0  0  0  0  0  0  0  0  0  0  0  0
   14.0076   -7.3324   -2.5179 H   0  0  0  0  0  0  0  0  0  0  0  0
  1  2  1  0
  2  3  2  0
  3  4  1  0
  3  5  1  0
  5  6  1  0
  5  7  2  0
  7  8  1  0
  8  9  1  0
  9 10  2  0
 10 11  1  0
 10 12  1  0
 12 13  1  0
 12 14  2  0
 14 15  1  0
 14 16  1  0
 16 17  1  0
 17 18  2  0
 17 19  2  0
 17 20  1  0
 20 21  2  0
 21 22  1  0
 21 23  1  0
 23 24  1  0
 23 25  2  0
 25 26  1  0
 25 27  1  0
 27 28  1  0
 27 29  2  0
 29 30  1  0
 16 31  2  0
 31 32  1  0
  8 33  1  0
 33 34  2  0
 33 35  1  0
 35 36  1  0
 36 37  1  0
 36 38  1  0
 36 39  1  0
 35 40  1  0
 40 41  1  0
 41 42  1  0
 41 43  1  0
 40 44  2  0
 44 45  1  0
  7 46  1  0
 46 47  1  0
 46 48  2  0
 48 49  1  0
 48  2  1  0
 44  8  1  0
 31  9  1  0
 29 20  1  0
M  CHG  1  44   1
M  END
>  <score>  (4) 
6.58144

$$$$

     RDKit          3D

 54 57  0  0  0  0  0  0  0  0999 V2000
   16.1268   -8.3724   -1.6639 H   0  0  0  0  0  0  0  0  0  0  0  0
   15.8798   -7.3304   -1.4797 C   0  0  0  0  0  0  0  0  0  0  0  0
   16.7697   -6.5086   -0.7759 C   0  0  0  0  0  0  0  0  0  0  0  0
   17.7183   -6.9022   -0.4218 H   0  0  0  0  0  0  0  0  0  0  0  0
   16.4419   -5.1715   -0.5267 C   0  0  0  0  0  0  0  0  0  0  0  0
   17.1392   -4.5379    0.0150 H   0  0  0  0  0  0  0  0  0  0  0  0
   15.2184   -4.6430   -0.9634 C   0  0  0  0  0  0  0  0  0  0  0  0
   14.8449   -3.2004   -0.6818 C   0  0  0  0  0  0  0  0  0  0  0  0
   15.4296   -2.2656   -1.7272 C   0  0  0  0  0  0  0  0  0  0  0  0
   15.9379   -2.7184   -2.9587 C   0  0  0  0  0  0  0  0  0  0  0  0
   15.9843   -3.7841   -3.1600 H   0  0  0  0  0  0  0  0  0  0  0  0
   16.3524   -1.8094   -3.9406 C   0  0  0  0  0  0  0  0  0  0  0  0
   16.7299   -2.1732   -4.8902 H   0  0  0  0  0  0  0  0  0  0  0  0
   16.2702   -0.4342   -3.7001 C   0  0  0  0  0  0  0  0  0  0  0  0
   16.5999    0.2734   -4.4570 H   0  0  0  0  0  0  0  0  0  0  0  0
   15.7915    0.0289   -2.4685 C   0  0  0  0  0  0  0  0  0  0  0  0
   15.7021    1.4580   -2.1767 C   0  0  0  0  0  0  0  0  0  0  0  0
   16.0696    1.9009   -0.9014 C   0  0  0  0  0  0  0  0  0  0  0  0
   16.4387    1.1954   -0.1597 H   0  0  0  0  0  0  0  0  0  0  0  0
   15.9620    3.2475   -0.5776 C   0  0  0  0  0  0  0  0  0  0  0  0
   16.2174    3.5777    0.4202 H   0  0  0  0  0  0  0  0  0  0  0  0
   15.5043    4.1784   -1.5146 C   0  0  0  0  0  0  0  0  0  0  0  0
   15.4081    5.5144   -1.2355 O   0  0  0  0  0  0  0  0  0  0  0  0
   15.4898    5.8604    0.1534 C   0  0  0  0  0  0  0  0  0  0  0  0
   16.2676    5.2939    0.6736 H   0  0  0  0  0  0  0  0  0  0  0  0
   14.5377    5.6688    0.6592 H   0  0  0  0  0  0  0  0  0  0  0  0
   15.7375    6.9197    0.2260 H   0  0  0  0  0  0  0  0  0  0  0  0
   15.1464    3.7372   -2.7845 C   0  0  0  0  0  0  0  0  0  0  0  0
   14.7940    4.4632   -3.5062 H   0  0  0  0  0  0  0  0  0  0  0  0
   15.2317    2.3803   -3.1326 C   0  0  0  0  0  0  0  0  0  0  0  0
   14.8330    1.9248   -4.3660 O   0  0  0  0  0  0  0  0  0  0  0  0
   13.7894    2.6660   -5.0191 C   0  0  0  0  0  0  0  0  0  0  0  0
   13.1176    1.9750   -5.5403 H   0  0  0  0  0  0  0  0  0  0  0  0
   14.2133    3.3442   -5.7616 H   0  0  0  0  0  0  0  0  0  0  0  0
   13.1984    3.2468   -4.3011 H   0  0  0  0  0  0  0  0  0  0  0  0
   15.3858   -0.8900   -1.4963 C   0  0  0  0  0  0  0  0  0  0  0  0
   15.0074   -0.5160   -0.5503 H   0  0  0  0  0  0  0  0  0  0  0  0
   13.3196   -3.0036   -0.5557 C   0  0  0  0  0  0  0  0  0  0  0  0
   12.4817   -3.1001   -1.4532 O   0  0  0  0  0  0  0  0  0  0  0  0
   12.9846   -2.7152    0.7514 N   0  0  0  0  0  0  0  0  0  0  0  0
   11.6481   -2.3461    1.2311 C   0  0  0  0  0  0  0  0  0  0  0  0
   11.6331   -1.2965    1.5394 H   0  0  0  0  0  0  0  0  0  0  0  0
   10.9111   -2.4787    0.4304 H   0  0  0  0  0  0  0  0  0  0  0  0
   11.3283   -2.9567    2.0837 H   0  0  0  0  0  0  0  0  0  0  0  0
   14.1724   -2.6437    1.4493 C   0  0  0  0  0  0  0  0  0  0  0  0
   14.2903   -2.4156    2.7855 N   0  0  0  0  0  0  0  0  0  0  0  0
   13.4647   -2.1263    3.3064 H   0  0  0  0  0  0  0  0  0  0  0  0
   15.2233   -2.2403    3.1602 H   0  0  0  0  0  0  0  0  0  0  0  0
   15.2146   -2.8308    0.7039 N   0  0  0  0  0  4  0  0  0  0  0  0
   16.1539   -2.9642    1.0845 H   0  0  0  0  0  0  0  0  0  0  0  0
   14.3487   -5.4678   -1.6940 C   0  0  0  0  0  0  0  0  0  0  0  0
   13.4117   -5.0665   -2.0654 H   0  0  0  0  0  0  0  0  0  0  0  0
   14.6704   -6.8043   -1.9464 C   0  0  0  0  0  0  0  0  0  0  0  0
   13.9780   -7.4290   -2.5042 H   0  0  0  0  0  0  0  0  0  0  0  0
  1  2  1  0
  2  3  2  0
  3  4  1  0
  3  5  1  0
  5  6  1  0
  5  7  2  0
  7  8  1  0
  8  9  1  0
  9 10  2  0
 10 11  1  0
 10 12  1  0
 12 13  1  0
 12 14  2  0
 14 15  1  0
 14 16  1  0
 16 17  1  0
 17 18  2  0
 18 19  1  0
 18 20  1  0
 20 21  1  0
 20 22  2  0
 22 23  1  0
 23 24  1  0
 24 25  1  0
 24 26  1  0
 24 27  1  0
 22 28  1  0
 28 29  1  0
 28 30  2  0
 30 31  1  0
 31 32  1  0
 32 33  1  0
 32 34  1  0
 32 35  1  0
 16 36  2  0
 36 37  1  0
  8 38  1  0
 38 39  2  0
 38 40  1  0
 40 41  1  0
 41 42  1  0
 41 43  1  0
 41 44  1  0
 40 45  1  0
 45 46  1  0
 46 47  1  0
 46 48  1  0
 45 49  2  0
 49 50  1  0
  7 51  1  0
 51 52  1  0
 51 53  2  0
 53 54  1  0
 53  2  1  0
 49  8  1  0
 36  9  1  0
 30 17  1  0
M  CHG  1  49   1
M  END
>  <score>  (5) 
6.56794

$$$$

     RDKit          3D

 50 54  0  0  0  0  0  0  0  0999 V2000
   16.1264   -8.4900   -1.6109 H   0  0  0  0  0  0  0  0  0  0  0  0
   15.8539   -7.4464   -1.4696 C   0  0  0  0  0  0  0  0  0  0  0  0
   16.7262   -6.5877   -0.7983 C   0  0  0  0  0  0  0  0  0  0  0  0
   17.6757   -6.9551   -0.4198 H   0  0  0  0  0  0  0  0  0  0  0  0
   16.3846   -5.2443   -0.6086 C   0  0  0  0  0  0  0  0  0  0  0  0
   17.0691   -4.5958   -0.0701 H   0  0  0  0  0  0  0  0  0  0  0  0
   15.1649   -4.7219   -1.0720 C   0  0  0  0  0  0  0  0  0  0  0  0
   14.8083   -3.2525   -0.7857 C   0  0  0  0  0  0  0  0  0  0  0  0
   15.3905   -2.2477   -1.7824 C   0  0  0  0  0  0  0  0  0  0  0  0
   15.9438   -2.6425   -3.0118 C   0  0  0  0  0  0  0  0  0  0  0  0
   16.0075   -3.6946   -3.2686 H   0  0  0  0  0  0  0  0  0  0  0  0
   16.4221   -1.6917   -3.9221 C   0  0  0  0  0  0  0  0  0  0  0  0
   16.8619   -2.0068   -4.8617 H   0  0  0  0  0  0  0  0  0  0  0  0
   16.3412   -0.3300   -3.6293 C   0  0  0  0  0  0  0  0  0  0  0  0
   16.7116    0.4035   -4.3400 H   0  0  0  0  0  0  0  0  0  0  0  0
   15.7931    0.0965   -2.4150 C   0  0  0  0  0  0  0  0  0  0  0  0
   15.7090    1.5344   -2.1056 C   0  0  0  0  0  0  0  0  0  0  0  0
   15.3728    2.4741   -3.1075 C   0  0  0  0  0  0  0  0  0  0  0  0
   15.1563    2.1538   -4.1173 H   0  0  0  0  0  0  0  0  0  0  0  0
   15.2791    3.8466   -2.8269 C   0  0  0  0  0  0  0  0  0  0  0  0
   15.0074    4.5970   -3.5641 H   0  0  0  0  0  0  0  0  0  0  0  0
   15.5384    4.2736   -1.5360 C   0  0  0  0  0  0  0  0  0  0  0  0
   15.8743    3.3763   -0.5362 C   0  0  0  0  0  0  0  0  0  0  0  0
   15.9601    2.0056   -0.8019 C   0  0  0  0  0  0  0  0  0  0  0  0
   16.2340    1.3309    0.0036 H   0  0  0  0  0  0  0  0  0  0  0  0
   16.0722    4.1455    0.6822 C   0  0  0  0  0  0  0  0  0  0  0  0
   16.3554    3.7286    1.6469 H   0  0  0  0  0  0  0  0  0  0  0  0
   15.8371    5.4719    0.3809 C   0  0  0  0  0  0  0  0  0  0  0  0
   15.9168    6.3151    1.0718 H   0  0  0  0  0  0  0  0  0  0  0  0
   15.5210    5.5373   -0.9775 N   0  0  0  0  0  0  0  0  0  0  0  0
   15.3006    6.3830   -1.5007 H   0  0  0  0  0  0  0  0  0  0  0  0
   15.3258   -0.8677   -1.5053 C   0  0  0  0  0  0  0  0  0  0  0  0
   14.8921   -0.5291   -0.5692 H   0  0  0  0  0  0  0  0  0  0  0  0
   13.2950   -3.0198   -0.6097 C   0  0  0  0  0  0  0  0  0  0  0  0
   12.4245   -3.0814   -1.4765 O   0  0  0  0  0  0  0  0  0  0  0  0
   13.0205   -2.6705    0.6987 N   0  0  0  0  0  0  0  0  0  0  0  0
   11.7194   -2.3130    1.2616 C   0  0  0  0  0  0  0  0  0  0  0  0
   11.6932   -1.2611    1.5594 H   0  0  0  0  0  0  0  0  0  0  0  0
   11.5012   -2.9191    2.1446 H   0  0  0  0  0  0  0  0  0  0  0  0
   10.9154   -2.4749    0.5392 H   0  0  0  0  0  0  0  0  0  0  0  0
   14.2238   -2.6306    1.3660 C   0  0  0  0  0  0  0  0  0  0  0  0
   14.3915   -2.3379    2.6896 N   0  0  0  0  0  0  0  0  0  0  0  0
   13.5800   -2.1268    3.2661 H   0  0  0  0  0  0  0  0  0  0  0  0
   15.3258   -2.3572    3.0961 H   0  0  0  0  0  0  0  0  0  0  0  0
   15.2178   -2.9070    0.5914 N   0  0  0  0  0  4  0  0  0  0  0  0
   16.1900   -2.8970    0.8968 H   0  0  0  0  0  0  0  0  0  0  0  0
   14.2994   -5.5972   -1.7682 C   0  0  0  0  0  0  0  0  0  0  0  0
   13.3522   -5.2468   -2.1692 H   0  0  0  0  0  0  0  0  0  0  0  0
   14.6427   -6.9484   -1.9603 C   0  0  0  0  0  0  0  0  0  0  0  0
   13.9732   -7.6220   -2.4889 H   0  0  0  0  0  0  0  0  0  0  0  0
  1  2  1  0
  2  3  2  0
  3  4  1  0
  3  5  1  0
  5  6  1  0
  5  7  2  0
  7  8  1  0
  8  9  1  0
  9 10  2  0
 10 11  1  0
 10 12  1  0
 12 13  1  0
 12 14  2  0
 14 15  1  0
 14 16  1  0
 16 17  1  0
 17 18  2  0
 18 19  1  0
 18 20  1  0
 20 21  1  0
 20 22  2  0
 22 23  1  0
 23 24  2  0
 24 25  1  0
 23 26  1  0
 26 27  1  0
 26 28  2  0
 28 29  1  0
 28 30  1  0
 30 31  1  0
 16 32  2  0
 32 33  1  0
  8 34  1  0
 34 35  2  0
 34 36  1  0
 36 37  1  0
 37 38  1  0
 37 39  1  0
 37 40  1  0
 36 41  1  0
 41 42  1  0
 42 43  1  0
 42 44  1  0
 41 45  2  0
 45 46  1  0
  7 47  1  0
 47 48  1  0
 47 49  2  0
 49 50  1  0
 49  2  1  0
 45  8  1  0
 32  9  1  0
 24 17  1  0
 30 22  1  0
M  CHG  1  45   1
M  END
>  <score>  (6) 
6.47843

$$$$

     RDKit          3D

 47 50  0  0  0  0  0  0  0  0999 V2000
   16.1307   -8.4929   -1.6102 H   0  0  0  0  0  0  0  0  0  0  0  0
   15.8555   -7.4515   -1.4670 C   0  0  0  0  0  0  0  0  0  0  0  0
   16.7244   -6.5924   -0.7933 C   0  0  0  0  0  0  0  0  0  0  0  0
   17.6790   -6.9540   -0.4228 H   0  0  0  0  0  0  0  0  0  0  0  0
   16.3780   -5.2499   -0.6049 C   0  0  0  0  0  0  0  0  0  0  0  0
   17.0724   -4.6051   -0.0767 H   0  0  0  0  0  0  0  0  0  0  0  0
   15.1556   -4.7261   -1.0693 C   0  0  0  0  0  0  0  0  0  0  0  0
   14.7993   -3.2506   -0.7870 C   0  0  0  0  0  0  0  0  0  0  0  0
   15.3868   -2.2459   -1.7876 C   0  0  0  0  0  0  0  0  0  0  0  0
   15.9461   -2.6443   -3.0170 C   0  0  0  0  0  0  0  0  0  0  0  0
   16.0104   -3.6964   -3.2796 H   0  0  0  0  0  0  0  0  0  0  0  0
   16.4268   -1.6896   -3.9231 C   0  0  0  0  0  0  0  0  0  0  0  0
   16.8605   -2.0074   -4.8654 H   0  0  0  0  0  0  0  0  0  0  0  0
   16.3486   -0.3251   -3.6244 C   0  0  0  0  0  0  0  0  0  0  0  0
   16.6991    0.4008   -4.3518 H   0  0  0  0  0  0  0  0  0  0  0  0
   15.7944    0.1082   -2.4111 C   0  0  0  0  0  0  0  0  0  0  0  0
   15.7138    1.5551   -2.0920 C   0  0  0  0  0  0  0  0  0  0  0  0
   16.8685    2.3518   -2.2137 C   0  0  0  0  0  0  0  0  0  0  0  0
   17.8054    1.9038   -2.5316 H   0  0  0  0  0  0  0  0  0  0  0  0
   16.8440    3.7182   -1.9093 C   0  0  0  0  0  0  0  0  0  0  0  0
   17.7491    4.3113   -2.0003 H   0  0  0  0  0  0  0  0  0  0  0  0
   15.6571    4.3161   -1.4839 C   0  0  0  0  0  0  0  0  0  0  0  0
   15.6359    5.3763   -1.2475 H   0  0  0  0  0  0  0  0  0  0  0  0
   14.4948    3.5487   -1.3670 C   0  0  0  0  0  0  0  0  0  0  0  0
   13.5756    4.0346   -1.0442 H   0  0  0  0  0  0  0  0  0  0  0  0
   14.5108    2.1731   -1.6686 C   0  0  0  0  0  0  0  0  0  0  0  0
   13.2878    1.4363   -1.5744 C   0  0  0  0  0  0  0  0  0  0  0  0
   12.2785    0.8522   -1.5148 N   0  0  0  0  0  0  0  0  0  0  0  0
   15.3205   -0.8619   -1.5080 C   0  0  0  0  0  0  0  0  0  0  0  0
   14.9140   -0.5312   -0.5561 H   0  0  0  0  0  0  0  0  0  0  0  0
   13.2851   -3.0116   -0.6173 C   0  0  0  0  0  0  0  0  0  0  0  0
   12.4172   -3.0751   -1.4852 O   0  0  0  0  0  0  0  0  0  0  0  0
   13.0179   -2.6649    0.6976 N   0  0  0  0  0  0  0  0  0  0  0  0
   11.7170   -2.3118    1.2614 C   0  0  0  0  0  0  0  0  0  0  0  0
   10.9181   -2.4823    0.5375 H   0  0  0  0  0  0  0  0  0  0  0  0
   11.6905   -1.2572    1.5524 H   0  0  0  0  0  0  0  0  0  0  0  0
   11.5020   -2.9175    2.1469 H   0  0  0  0  0  0  0  0  0  0  0  0
   14.2199   -2.6312    1.3683 C   0  0  0  0  0  0  0  0  0  0  0  0
   14.3870   -2.3451    2.6933 N   0  0  0  0  0  0  0  0  0  0  0  0
   13.5779   -2.1252    3.2728 H   0  0  0  0  0  0  0  0  0  0  0  0
   15.3209   -2.3611    3.1026 H   0  0  0  0  0  0  0  0  0  0  0  0
   15.2177   -2.9088    0.5899 N   0  0  0  0  0  4  0  0  0  0  0  0
   16.1945   -2.8833    0.8890 H   0  0  0  0  0  0  0  0  0  0  0  0
   14.2957   -5.6063   -1.7698 C   0  0  0  0  0  0  0  0  0  0  0  0
   13.3513   -5.2599   -2.1809 H   0  0  0  0  0  0  0  0  0  0  0  0
   14.6426   -6.9576   -1.9589 C   0  0  0  0  0  0  0  0  0  0  0  0
   13.9734   -7.6297   -2.4896 H   0  0  0  0  0  0  0  0  0  0  0  0
  1  2  1  0
  2  3  2  0
  3  4  1  0
  3  5  1  0
  5  6  1  0
  5  7  2  0
  7  8  1  0
  8  9  1  0
  9 10  2  0
 10 11  1  0
 10 12  1  0
 12 13  1  0
 12 14  2  0
 14 15  1  0
 14 16  1  0
 16 17  1  0
 17 18  2  0
 18 19  1  0
 18 20  1  0
 20 21  1  0
 20 22  2  0
 22 23  1  0
 22 24  1  0
 24 25  1  0
 24 26  2  0
 26 27  1  0
 27 28  3  0
 16 29  2  0
 29 30  1  0
  8 31  1  0
 31 32  2  0
 31 33  1  0
 33 34  1  0
 34 35  1  0
 34 36  1  0
 34 37  1  0
 33 38  1  0
 38 39  1  0
 39 40  1  0
 39 41  1  0
 38 42  2  0
 42 43  1  0
  7 44  1  0
 44 45  1  0
 44 46  2  0
 46 47  1  0
 46  2  1  0
 42  8  1  0
 29  9  1  0
 26 17  1  0
M  CHG  1  42   1
M  END
>  <score>  (7) 
6.44502

$$$$

     RDKit          3D

 50 53  0  0  0  0  0  0  0  0999 V2000
   16.1031   -8.4523   -1.6245 H   0  0  0  0  0  0  0  0  0  0  0  0
   15.8561   -7.4033   -1.4838 C   0  0  0  0  0  0  0  0  0  0  0  0
   16.7427   -6.5648   -0.8015 C   0  0  0  0  0  0  0  0  0  0  0  0
   17.6801   -6.9530   -0.4129 H   0  0  0  0  0  0  0  0  0  0  0  0
   16.4163   -5.2195   -0.6009 C   0  0  0  0  0  0  0  0  0  0  0  0
   17.0993   -4.5742   -0.0560 H   0  0  0  0  0  0  0  0  0  0  0  0
   15.1984   -4.6909   -1.0579 C   0  0  0  0  0  0  0  0  0  0  0  0
   14.8322   -3.2391   -0.7605 C   0  0  0  0  0  0  0  0  0  0  0  0
   15.3987   -2.2306   -1.7558 C   0  0  0  0  0  0  0  0  0  0  0  0
   15.9361   -2.6305   -2.9899 C   0  0  0  0  0  0  0  0  0  0  0  0
   15.9927   -3.6871   -3.2337 H   0  0  0  0  0  0  0  0  0  0  0  0
   16.4037   -1.6841   -3.9106 C   0  0  0  0  0  0  0  0  0  0  0  0
   16.8285   -2.0010   -4.8570 H   0  0  0  0  0  0  0  0  0  0  0  0
   16.3304   -0.3194   -3.6144 C   0  0  0  0  0  0  0  0  0  0  0  0
   16.6918    0.4165   -4.3280 H   0  0  0  0  0  0  0  0  0  0  0  0
   15.8042    0.1106   -2.3911 C   0  0  0  0  0  0  0  0  0  0  0  0
   15.7255    1.5448   -2.0746 C   0  0  0  0  0  0  0  0  0  0  0  0
   15.9691    2.0055   -0.7706 C   0  0  0  0  0  0  0  0  0  0  0  0
   16.2344    1.2976    0.0141 H   0  0  0  0  0  0  0  0  0  0  0  0
   15.8714    3.3732   -0.4789 C   0  0  0  0  0  0  0  0  0  0  0  0
   16.0957    3.7254    0.5262 H   0  0  0  0  0  0  0  0  0  0  0  0
   15.4672    4.2865   -1.4757 C   0  0  0  0  0  0  0  0  0  0  0  0
   15.3438    5.6342   -1.2649 O   0  0  0  0  0  0  0  0  0  0  0  0
   15.4257    6.0215    0.1018 C   0  0  0  0  0  0  0  0  0  0  0  0
   14.4731    5.8155    0.5994 H   0  0  0  0  0  0  0  0  0  0  0  0
   15.6592    7.0888    0.1374 H   0  0  0  0  0  0  0  0  0  0  0  0
   16.2011    5.4740    0.6425 H   0  0  0  0  0  0  0  0  0  0  0  0
   15.1784    3.8216   -2.7566 C   0  0  0  0  0  0  0  0  0  0  0  0
   14.6944    4.6874   -3.6788 F   0  0  0  0  0  0  0  0  0  0  0  0
   15.3567    2.4725   -3.0656 C   0  0  0  0  0  0  0  0  0  0  0  0
   15.1561    2.1559   -4.0813 H   0  0  0  0  0  0  0  0  0  0  0  0
   15.3404   -0.8506   -1.4753 C   0  0  0  0  0  0  0  0  0  0  0  0
   14.9133   -0.5168   -0.5340 H   0  0  0  0  0  0  0  0  0  0  0  0
   13.3121   -3.0333   -0.5915 C   0  0  0  0  0  0  0  0  0  0  0  0
   12.4449   -3.1467   -1.4606 O   0  0  0  0  0  0  0  0  0  0  0  0
   13.0382   -2.6803    0.7123 N   0  0  0  0  0  0  0  0  0  0  0  0
   11.7352   -2.3147    1.2758 C   0  0  0  0  0  0  0  0  0  0  0  0
   10.9315   -2.4777    0.5506 H   0  0  0  0  0  0  0  0  0  0  0  0
   11.7203   -1.2589    1.5609 H   0  0  0  0  0  0  0  0  0  0  0  0
   11.5062   -2.9127    2.1632 H   0  0  0  0  0  0  0  0  0  0  0  0
   14.2444   -2.6170    1.3764 C   0  0  0  0  0  0  0  0  0  0  0  0
   14.4181   -2.2848    2.6849 N   0  0  0  0  0  0  0  0  0  0  0  0
   15.3548   -2.3254    3.0872 H   0  0  0  0  0  0  0  0  0  0  0  0
   13.6057   -2.1225    3.2754 H   0  0  0  0  0  0  0  0  0  0  0  0
   15.2465   -2.9096    0.6185 N   0  0  0  0  0  4  0  0  0  0  0  0
   16.2111   -2.9725    0.9474 H   0  0  0  0  0  0  0  0  0  0  0  0
   14.3202   -5.5426   -1.7564 C   0  0  0  0  0  0  0  0  0  0  0  0
   13.3684   -5.1668   -2.1202 H   0  0  0  0  0  0  0  0  0  0  0  0
   14.6483   -6.8901   -1.9686 C   0  0  0  0  0  0  0  0  0  0  0  0
   13.9575   -7.5481   -2.4886 H   0  0  0  0  0  0  0  0  0  0  0  0
  1  2  1  0
  2  3  2  0
  3  4  1  0
  3  5  1  0
  5  6  1  0
  5  7  2  0
  7  8  1  0
  8  9  1  0
  9 10  2  0
 10 11  1  0
 10 12  1  0
 12 13  1  0
 12 14  2  0
 14 15  1  0
 14 16  1  0
 16 17  1  0
 17 18  2  0
 18 19  1  0
 18 20  1  0
 20 21  1  0
 20 22  2  0
 22 23  1  0
 23 24  1  0
 24 25  1  0
 24 26  1  0
 24 27  1  0
 22 28  1  0
 28 29  1  0
 28 30  2  0
 30 31  1  0
 16 32  2  0
 32 33  1  0
  8 34  1  0
 34 35  2  0
 34 36  1  0
 36 37  1  0
 37 38  1  0
 37 39  1  0
 37 40  1  0
 36 41  1  0
 41 42  1  0
 42 43  1  0
 42 44  1  0
 41 45  2  0
 45 46  1  0
  7 47  1  0
 47 48  1  0
 47 49  2  0
 49 50  1  0
 49  2  1  0
 45  8  1  0
 32  9  1  0
 30 17  1  0
M  CHG  1  45   1
M  END
>  <score>  (8) 
6.43925

$$$$

     RDKit          3D

 49 52  0  0  0  0  0  0  0  0999 V2000
   16.1018   -8.4266   -1.6447 H   0  0  0  0  0  0  0  0  0  0  0  0
   15.8572   -7.3798   -1.4860 C   0  0  0  0  0  0  0  0  0  0  0  0
   16.7486   -6.5483   -0.8024 C   0  0  0  0  0  0  0  0  0  0  0  0
   17.6874   -6.9445   -0.4265 H   0  0  0  0  0  0  0  0  0  0  0  0
   16.4304   -5.2022   -0.5882 C   0  0  0  0  0  0  0  0  0  0  0  0
   17.1308   -4.5722   -0.0478 H   0  0  0  0  0  0  0  0  0  0  0  0
   15.2117   -4.6624   -1.0370 C   0  0  0  0  0  0  0  0  0  0  0  0
   14.8414   -3.2051   -0.7343 C   0  0  0  0  0  0  0  0  0  0  0  0
   15.3991   -2.1838   -1.7327 C   0  0  0  0  0  0  0  0  0  0  0  0
   15.9448   -2.6390   -2.9421 C   0  0  0  0  0  0  0  0  0  0  0  0
   15.9777   -3.7056   -3.1468 H   0  0  0  0  0  0  0  0  0  0  0  0
   16.4420   -1.7438   -3.8871 C   0  0  0  0  0  0  0  0  0  0  0  0
   16.8628   -2.1094   -4.8176 H   0  0  0  0  0  0  0  0  0  0  0  0
   16.3889   -0.3754   -3.6515 C   0  0  0  0  0  0  0  0  0  0  0  0
   16.7847    0.2834   -4.4253 H   0  0  0  0  0  0  0  0  0  0  0  0
   15.8159    0.1291   -2.4694 C   0  0  0  0  0  0  0  0  0  0  0  0
   15.6551    1.9605   -2.3898 S   0  0  0  0  0  0  0  0  0  0  0  0
   16.8295    2.5469   -3.0606 O   0  0  0  0  0  0  0  0  0  0  0  0
   14.4294    2.3488   -3.1174 O   0  0  0  0  0  0  0  0  0  0  0  0
   15.5666    2.5958   -0.6736 C   0  0  0  0  0  0  0  0  0  0  0  0
   16.7397    2.8013    0.0771 C   0  0  0  0  0  0  0  0  0  0  0  0
   17.7150    2.5437   -0.3250 H   0  0  0  0  0  0  0  0  0  0  0  0
   16.6764    3.3678    1.3582 C   0  0  0  0  0  0  0  0  0  0  0  0
   17.5754    3.5173    1.9536 H   0  0  0  0  0  0  0  0  0  0  0  0
   15.4482    3.7495    1.8970 C   0  0  0  0  0  0  0  0  0  0  0  0
   15.3998    4.1758    2.8960 H   0  0  0  0  0  0  0  0  0  0  0  0
   14.2923    3.5960    1.1281 C   0  0  0  0  0  0  0  0  0  0  0  0
   13.3312    3.9064    1.5074 H   0  0  0  0  0  0  0  0  0  0  0  0
   14.3412    3.0253   -0.1425 C   0  0  0  0  0  0  0  0  0  0  0  0
   13.4157    2.9278   -0.7062 H   0  0  0  0  0  0  0  0  0  0  0  0
   15.3283   -0.7846   -1.5044 C   0  0  0  0  0  0  0  0  0  0  0  0
   14.8797   -0.4268   -0.5789 H   0  0  0  0  0  0  0  0  0  0  0  0
   13.3184   -3.0344   -0.5597 C   0  0  0  0  0  0  0  0  0  0  0  0
   12.4505   -3.1936   -1.4156 O   0  0  0  0  0  0  0  0  0  0  0  0
   13.0476   -2.6665    0.7434 N   0  0  0  0  0  0  0  0  0  0  0  0
   11.7423   -2.3080    1.2959 C   0  0  0  0  0  0  0  0  0  0  0  0
   11.5213   -2.9063    2.1873 H   0  0  0  0  0  0  0  0  0  0  0  0
   10.9437   -2.4815    0.5648 H   0  0  0  0  0  0  0  0  0  0  0  0
   11.7263   -1.2480    1.5727 H   0  0  0  0  0  0  0  0  0  0  0  0
   14.2554   -2.5853    1.3992 C   0  0  0  0  0  0  0  0  0  0  0  0
   14.4400   -2.2438    2.7044 N   0  0  0  0  0  0  0  0  0  0  0  0
   13.6290   -2.1203    3.3084 H   0  0  0  0  0  0  0  0  0  0  0  0
   15.3767   -2.3036    3.0999 H   0  0  0  0  0  0  0  0  0  0  0  0
   15.2588   -2.8734    0.6398 N   0  0  0  0  0  4  0  0  0  0  0  0
   16.2189   -2.9597    0.9754 H   0  0  0  0  0  0  0  0  0  0  0  0
   14.3317   -5.5099   -1.7414 C   0  0  0  0  0  0  0  0  0  0  0  0
   13.3844   -5.1289   -2.1116 H   0  0  0  0  0  0  0  0  0  0  0  0
   14.6510   -6.8573   -1.9622 C   0  0  0  0  0  0  0  0  0  0  0  0
   13.9577   -7.5000   -2.4971 H   0  0  0  0  0  0  0  0  0  0  0  0
  1  2  1  0
  2  3  2  0
  3  4  1  0
  3  5  1  0
  5  6  1  0
  5  7  2  0
  7  8  1  0
  8  9  1  0
  9 10  2  0
 10 11  1  0
 10 12  1  0
 12 13  1  0
 12 14  2  0
 14 15  1  0
 14 16  1  0
 16 17  1  0
 17 18  2  0
 17 19  2  0
 17 20  1  0
 20 21  2  0
 21 22  1  0
 21 23  1  0
 23 24  1  0
 23 25  2  0
 25 26  1  0
 25 27  1  0
 27 28  1  0
 27 29  2  0
 29 30  1  0
 16 31  2  0
 31 32  1  0
  8 33  1  0
 33 34  2  0
 33 35  1  0
 35 36  1  0
 36 37  1  0
 36 38  1  0
 36 39  1  0
 35 40  1  0
 40 41  1  0
 41 42  1  0
 41 43  1  0
 40 44  2  0
 44 45  1  0
  7 46  1  0
 46 47  1  0
 46 48  2  0
 48 49  1  0
 48  2  1  0
 44  8  1  0
 31  9  1  0
 29 20  1  0
M  CHG  1  44   1
M  END
>  <score>  (9) 
6.41892

$$$$

     RDKit          3D

 49 53  0  0  0  0  0  0  0  0999 V2000
   16.0997   -8.4588   -1.6173 H   0  0  0  0  0  0  0  0  0  0  0  0
   15.8596   -7.4075   -1.4859 C   0  0  0  0  0  0  0  0  0  0  0  0
   16.7422   -6.5654   -0.8034 C   0  0  0  0  0  0  0  0  0  0  0  0
   17.6749   -6.9582   -0.4093 H   0  0  0  0  0  0  0  0  0  0  0  0
   16.4129   -5.2190   -0.6074 C   0  0  0  0  0  0  0  0  0  0  0  0
   17.0822   -4.5680   -0.0524 H   0  0  0  0  0  0  0  0  0  0  0  0
   15.1954   -4.6943   -1.0700 C   0  0  0  0  0  0  0  0  0  0  0  0
   14.8264   -3.2424   -0.7655 C   0  0  0  0  0  0  0  0  0  0  0  0
   15.3805   -2.2351   -1.7718 C   0  0  0  0  0  0  0  0  0  0  0  0
   15.9382   -2.6371   -2.9975 C   0  0  0  0  0  0  0  0  0  0  0  0
   15.9885   -3.6984   -3.2298 H   0  0  0  0  0  0  0  0  0  0  0  0
   16.4217   -1.6863   -3.9082 C   0  0  0  0  0  0  0  0  0  0  0  0
   16.8444   -2.0032   -4.8561 H   0  0  0  0  0  0  0  0  0  0  0  0
   16.3580   -0.3247   -3.5991 C   0  0  0  0  0  0  0  0  0  0  0  0
   16.7387    0.4142   -4.2992 H   0  0  0  0  0  0  0  0  0  0  0  0
   15.7820    0.1018   -2.3970 C   0  0  0  0  0  0  0  0  0  0  0  0
   15.6998    1.5286   -2.0838 C   0  0  0  0  0  0  0  0  0  0  0  0
   16.7418    2.3941   -2.4601 C   0  0  0  0  0  0  0  0  0  0  0  0
   17.6091    1.9786   -2.9536 H   0  0  0  0  0  0  0  0  0  0  0  0
   16.6900    3.7628   -2.1699 C   0  0  0  0  0  0  0  0  0  0  0  0
   17.4785    4.4597   -2.4311 H   0  0  0  0  0  0  0  0  0  0  0  0
   15.5797    4.2516   -1.5041 C   0  0  0  0  0  0  0  0  0  0  0  0
   14.5393    3.4229   -1.1402 C   0  0  0  0  0  0  0  0  0  0  0  0
   14.5885    2.0546   -1.4048 C   0  0  0  0  0  0  0  0  0  0  0  0
   13.7652    1.4194   -1.0904 H   0  0  0  0  0  0  0  0  0  0  0  0
   13.5611    4.1334   -0.5335 O   0  0  0  0  0  0  0  0  0  0  0  0
   14.0593    5.4852   -0.5336 C   0  0  0  0  0  0  0  0  0  0  0  0
   14.1148    5.8364    0.5042 H   0  0  0  0  0  0  0  0  0  0  0  0
   13.3860    6.1206   -1.1251 H   0  0  0  0  0  0  0  0  0  0  0  0
   15.3660    5.5303   -1.1243 O   0  0  0  0  0  0  0  0  0  0  0  0
   15.2902   -0.8565   -1.5003 C   0  0  0  0  0  0  0  0  0  0  0  0
   14.8533   -0.5212   -0.5639 H   0  0  0  0  0  0  0  0  0  0  0  0
   13.3035   -3.0444   -0.5922 C   0  0  0  0  0  0  0  0  0  0  0  0
   12.4436   -3.1344   -1.4634 O   0  0  0  0  0  0  0  0  0  0  0  0
   13.0286   -2.6844    0.7139 N   0  0  0  0  0  0  0  0  0  0  0  0
   11.7279   -2.3146    1.2753 C   0  0  0  0  0  0  0  0  0  0  0  0
   11.7155   -1.2567    1.5585 H   0  0  0  0  0  0  0  0  0  0  0  0
   10.9224   -2.4761    0.5482 H   0  0  0  0  0  0  0  0  0  0  0  0
   11.5035   -2.9163    2.1627 H   0  0  0  0  0  0  0  0  0  0  0  0
   14.2395   -2.6218    1.3689 C   0  0  0  0  0  0  0  0  0  0  0  0
   14.4132   -2.2987    2.6775 N   0  0  0  0  0  0  0  0  0  0  0  0
   13.6017   -2.1212    3.2630 H   0  0  0  0  0  0  0  0  0  0  0  0
   15.3489   -2.3273    3.0782 H   0  0  0  0  0  0  0  0  0  0  0  0
   15.2476   -2.9091    0.6122 N   0  0  0  0  0  4  0  0  0  0  0  0
   16.2145   -2.9693    0.9444 H   0  0  0  0  0  0  0  0  0  0  0  0
   14.3196   -5.5527   -1.7636 C   0  0  0  0  0  0  0  0  0  0  0  0
   13.3643   -5.1734   -2.1149 H   0  0  0  0  0  0  0  0  0  0  0  0
   14.6497   -6.9015   -1.9714 C   0  0  0  0  0  0  0  0  0  0  0  0
   13.9584   -7.5636   -2.4857 H   0  0  0  0  0  0  0  0  0  0  0  0
  1  2  1  0
  2  3  2  0
  3  4  1  0
  3  5  1  0
  5  6  1  0
  5  7  2  0
  7  8  1  0
  8  9  1  0
  9 10  2  0
 10 11  1  0
 10 12  1  0
 12 13  1  0
 12 14  2  0
 14 15  1  0
 14 16  1  0
 16 17  1  0
 17 18  2  0
 18 19  1  0
 18 20  1  0
 20 21  1  0
 20 22  2  0
 22 23  1  0
 23 24  2  0
 24 25  1  0
 23 26  1  0
 26 27  1  0
 27 28  1  0
 27 29  1  0
 27 30  1  0
 16 31  2  0
 31 32  1  0
  8 33  1  0
 33 34  2  0
 33 35  1  0
 35 36  1  0
 36 37  1  0
 36 38  1  0
 36 39  1  0
 35 40  1  0
 40 41  1  0
 41 42  1  0
 41 43  1  0
 40 44  2  0
 44 45  1  0
  7 46  1  0
 46 47  1  0
 46 48  2  0
 48 49  1  0
 48  2  1  0
 44  8  1  0
 31  9  1  0
 24 17  1  0
 30 22  1  0
M  CHG  1  44   1
M  END
>  <score>  (10) 
6.40912

$$$$

     RDKit          3D

 49 52  0  0  0  0  0  0  0  0999 V2000
   16.1203   -8.4856   -1.6115 H   0  0  0  0  0  0  0  0  0  0  0  0
   15.8538   -7.4393   -1.4731 C   0  0  0  0  0  0  0  0  0  0  0  0
   16.7299   -6.5817   -0.8036 C   0  0  0  0  0  0  0  0  0  0  0  0
   17.6720   -6.9566   -0.4162 H   0  0  0  0  0  0  0  0  0  0  0  0
   16.3933   -5.2370   -0.6111 C   0  0  0  0  0  0  0  0  0  0  0  0
   17.0672   -4.5857   -0.0623 H   0  0  0  0  0  0  0  0  0  0  0  0
   15.1755   -4.7143   -1.0755 C   0  0  0  0  0  0  0  0  0  0  0  0
   14.8161   -3.2514   -0.7847 C   0  0  0  0  0  0  0  0  0  0  0  0
   15.3829   -2.2434   -1.7816 C   0  0  0  0  0  0  0  0  0  0  0  0
   15.9398   -2.6386   -3.0079 C   0  0  0  0  0  0  0  0  0  0  0  0
   15.9993   -3.6926   -3.2555 H   0  0  0  0  0  0  0  0  0  0  0  0
   16.4228   -1.6893   -3.9178 C   0  0  0  0  0  0  0  0  0  0  0  0
   16.8565   -2.0019   -4.8617 H   0  0  0  0  0  0  0  0  0  0  0  0
   16.3435   -0.3245   -3.6224 C   0  0  0  0  0  0  0  0  0  0  0  0
   16.7122    0.4081   -4.3362 H   0  0  0  0  0  0  0  0  0  0  0  0
   15.7680    0.1054   -2.4191 C   0  0  0  0  0  0  0  0  0  0  0  0
   15.7059    1.5464   -2.0907 C   0  0  0  0  0  0  0  0  0  0  0  0
   16.9021    2.2708   -1.9741 C   0  0  0  0  0  0  0  0  0  0  0  0
   17.8447    1.7676   -2.1412 H   0  0  0  0  0  0  0  0  0  0  0  0
   16.9131    3.6251   -1.6184 C   0  0  0  0  0  0  0  0  0  0  0  0
   17.8542    4.1627   -1.5132 H   0  0  0  0  0  0  0  0  0  0  0  0
   15.7064    4.2840   -1.3852 C   0  0  0  0  0  0  0  0  0  0  0  0
   15.6999    5.3316   -1.0969 H   0  0  0  0  0  0  0  0  0  0  0  0
   14.5033    3.5914   -1.5167 C   0  0  0  0  0  0  0  0  0  0  0  0
   13.5755    4.1313   -1.3384 H   0  0  0  0  0  0  0  0  0  0  0  0
   14.4846    2.2267   -1.8780 C   0  0  0  0  0  0  0  0  0  0  0  0
   13.1553    1.5192   -2.0530 C   0  0  0  0  0  0  0  0  0  0  0  0
   13.1866    0.6486   -3.0963 F   0  0  0  0  0  0  0  0  0  0  0  0
   12.8291    0.8394   -0.9265 F   0  0  0  0  0  0  0  0  0  0  0  0
   12.1566    2.4094   -2.3046 F   0  0  0  0  0  0  0  0  0  0  0  0
   15.3014   -0.8617   -1.5114 C   0  0  0  0  0  0  0  0  0  0  0  0
   14.8938   -0.5290   -0.5623 H   0  0  0  0  0  0  0  0  0  0  0  0
   13.3016   -3.0261   -0.6020 C   0  0  0  0  0  0  0  0  0  0  0  0
   12.4331   -3.0914   -1.4686 O   0  0  0  0  0  0  0  0  0  0  0  0
   13.0245   -2.6767    0.7028 N   0  0  0  0  0  0  0  0  0  0  0  0
   11.7197   -2.3125    1.2632 C   0  0  0  0  0  0  0  0  0  0  0  0
   11.6945   -1.2589    1.5543 H   0  0  0  0  0  0  0  0  0  0  0  0
   11.5049   -2.9130    2.1499 H   0  0  0  0  0  0  0  0  0  0  0  0
   10.9121   -2.4778    0.5421 H   0  0  0  0  0  0  0  0  0  0  0  0
   14.2270   -2.6290    1.3645 C   0  0  0  0  0  0  0  0  0  0  0  0
   14.3960   -2.3309    2.6849 N   0  0  0  0  0  0  0  0  0  0  0  0
   13.5821   -2.1255    3.2590 H   0  0  0  0  0  0  0  0  0  0  0  0
   15.3326   -2.3522    3.0897 H   0  0  0  0  0  0  0  0  0  0  0  0
   15.2213   -2.9047    0.5939 N   0  0  0  0  0  4  0  0  0  0  0  0
   16.1889   -2.9152    0.9100 H   0  0  0  0  0  0  0  0  0  0  0  0
   14.3049   -5.5861   -1.7676 C   0  0  0  0  0  0  0  0  0  0  0  0
   13.3539   -5.2299   -2.1541 H   0  0  0  0  0  0  0  0  0  0  0  0
   14.6434   -6.9374   -1.9620 C   0  0  0  0  0  0  0  0  0  0  0  0
   13.9722   -7.6107   -2.4877 H   0  0  0  0  0  0  0  0  0  0  0  0
  1  2  1  0
  2  3  2  0
  3  4  1  0
  3  5  1  0
  5  6  1  0
  5  7  2  0
  7  8  1  0
  8  9  1  0
  9 10  2  0
 10 11  1  0
 10 12  1  0
 12 13  1  0
 12 14  2  0
 14 15  1  0
 14 16  1  0
 16 17  1  0
 17 18  2  0
 18 19  1  0
 18 20  1  0
 20 21  1  0
 20 22  2  0
 22 23  1  0
 22 24  1  0
 24 25  1  0
 24 26  2  0
 26 27  1  0
 27 28  1  0
 27 29  1  0
 27 30  1  0
 16 31  2  0
 31 32  1  0
  8 33  1  0
 33 34  2  0
 33 35  1  0
 35 36  1  0
 36 37  1  0
 36 38  1  0
 36 39  1  0
 35 40  1  0
 40 41  1  0
 41 42  1  0
 41 43  1  0
 40 44  2  0
 44 45  1  0
  7 46  1  0
 46 47  1  0
 46 48  2  0
 48 49  1  0
 48  2  1  0
 44  8  1  0
 31  9  1  0
 26 17  1  0
M  CHG  1  44   1
M  END
>  <score>  (11) 
6.40594

$$$$

     RDKit          3D

 49 52  0  0  0  0  0  0  0  0999 V2000
   16.1247   -8.4890   -1.6109 H   0  0  0  0  0  0  0  0  0  0  0  0
   15.8533   -7.4446   -1.4709 C   0  0  0  0  0  0  0  0  0  0  0  0
   16.7271   -6.5861   -0.8003 C   0  0  0  0  0  0  0  0  0  0  0  0
   17.6742   -6.9552   -0.4184 H   0  0  0  0  0  0  0  0  0  0  0  0
   16.3885   -5.2416   -0.6108 C   0  0  0  0  0  0  0  0  0  0  0  0
   17.0678   -4.5921   -0.0667 H   0  0  0  0  0  0  0  0  0  0  0  0
   15.1695   -4.7197   -1.0728 C   0  0  0  0  0  0  0  0  0  0  0  0
   14.8125   -3.2534   -0.7835 C   0  0  0  0  0  0  0  0  0  0  0  0
   15.3925   -2.2490   -1.7798 C   0  0  0  0  0  0  0  0  0  0  0  0
   15.9460   -2.6422   -3.0089 C   0  0  0  0  0  0  0  0  0  0  0  0
   16.0045   -3.6940   -3.2639 H   0  0  0  0  0  0  0  0  0  0  0  0
   16.4237   -1.6907   -3.9208 C   0  0  0  0  0  0  0  0  0  0  0  0
   16.8563   -2.0039   -4.8651 H   0  0  0  0  0  0  0  0  0  0  0  0
   16.3423   -0.3278   -3.6275 C   0  0  0  0  0  0  0  0  0  0  0  0
   16.6938    0.4065   -4.3482 H   0  0  0  0  0  0  0  0  0  0  0  0
   15.7859    0.0936   -2.4147 C   0  0  0  0  0  0  0  0  0  0  0  0
   15.6406    1.5682   -2.1079 C   0  0  0  0  0  0  0  0  0  0  0  0
   15.8698    1.7638   -1.0553 H   0  0  0  0  0  0  0  0  0  0  0  0
   16.3488    2.1585   -2.6979 H   0  0  0  0  0  0  0  0  0  0  0  0
   14.2311    2.0080   -2.4195 C   0  0  0  0  0  0  0  0  0  0  0  0
   13.8847    2.4432   -3.7010 C   0  0  0  0  0  0  0  0  0  0  0  0
   14.6434    2.4846   -4.4739 H   0  0  0  0  0  0  0  0  0  0  0  0
   12.5644    2.8006   -3.9955 C   0  0  0  0  0  0  0  0  0  0  0  0
   12.3002    3.1260   -4.9958 H   0  0  0  0  0  0  0  0  0  0  0  0
   11.5727    2.7277   -3.0117 C   0  0  0  0  0  0  0  0  0  0  0  0
    9.9299    3.1681   -3.4099 Cl  0  0  0  0  0  0  0  0  0  0  0  0
   11.9108    2.2987   -1.7219 C   0  0  0  0  0  0  0  0  0  0  0  0
   10.7019    2.1776   -0.4612 Cl  0  0  0  0  0  0  0  0  0  0  0  0
   13.2343    1.9487   -1.4414 C   0  0  0  0  0  0  0  0  0  0  0  0
   13.4854    1.6106   -0.4489 H   0  0  0  0  0  0  0  0  0  0  0  0
   15.3199   -0.8700   -1.5063 C   0  0  0  0  0  0  0  0  0  0  0  0
   14.8898   -0.5310   -0.5695 H   0  0  0  0  0  0  0  0  0  0  0  0
   13.2987   -3.0221   -0.6071 C   0  0  0  0  0  0  0  0  0  0  0  0
   12.4285   -3.0830   -1.4731 O   0  0  0  0  0  0  0  0  0  0  0  0
   13.0226   -2.6721    0.7009 N   0  0  0  0  0  0  0  0  0  0  0  0
   11.7207   -2.3128    1.2609 C   0  0  0  0  0  0  0  0  0  0  0  0
   11.5067   -2.9077    2.1510 H   0  0  0  0  0  0  0  0  0  0  0  0
   11.6885   -1.2591    1.5478 H   0  0  0  0  0  0  0  0  0  0  0  0
   10.9128   -2.4852    0.5447 H   0  0  0  0  0  0  0  0  0  0  0  0
   14.2232   -2.6304    1.3660 C   0  0  0  0  0  0  0  0  0  0  0  0
   14.3938   -2.3355    2.6867 N   0  0  0  0  0  0  0  0  0  0  0  0
   15.3282   -2.3565    3.0939 H   0  0  0  0  0  0  0  0  0  0  0  0
   13.5810   -2.1255    3.2628 H   0  0  0  0  0  0  0  0  0  0  0  0
   15.2181   -2.9067    0.5925 N   0  0  0  0  0  4  0  0  0  0  0  0
   16.1879   -2.9042    0.9017 H   0  0  0  0  0  0  0  0  0  0  0  0
   14.3012   -5.5926   -1.7675 C   0  0  0  0  0  0  0  0  0  0  0  0
   13.3525   -5.2415   -2.1640 H   0  0  0  0  0  0  0  0  0  0  0  0
   14.6428   -6.9441   -1.9611 C   0  0  0  0  0  0  0  0  0  0  0  0
   13.9732   -7.6184   -2.4883 H   0  0  0  0  0  0  0  0  0  0  0  0
  1  2  1  0
  2  3  2  0
  3  4  1  0
  3  5  1  0
  5  6  1  0
  5  7  2  0
  7  8  1  0
  8  9  1  0
  9 10  2  0
 10 11  1  0
 10 12  1  0
 12 13  1  0
 12 14  2  0
 14 15  1  0
 14 16  1  0
 16 17  1  0
 17 18  1  0
 17 19  1  0
 17 20  1  0
 20 21  2  0
 21 22  1  0
 21 23  1  0
 23 24  1  0
 23 25  2  0
 25 26  1  0
 25 27  1  0
 27 28  1  0
 27 29  2  0
 29 30  1  0
 16 31  2  0
 31 32  1  0
  8 33  1  0
 33 34  2  0
 33 35  1  0
 35 36  1  0
 36 37  1  0
 36 38  1  0
 36 39  1  0
 35 40  1  0
 40 41  1  0
 41 42  1  0
 41 43  1  0
 40 44  2  0
 44 45  1  0
  7 46  1  0
 46 47  1  0
 46 48  2  0
 48 49  1  0
 48  2  1  0
 44  8  1  0
 31  9  1  0
 29 20  1  0
M  CHG  1  44   1
M  END
>  <score>  (12) 
6.39629

$$$$

     RDKit          3D

 49 52  0  0  0  0  0  0  0  0999 V2000
   16.3659   -8.6276   -1.7717 H   0  0  0  0  0  0  0  0  0  0  0  0
   16.0284   -7.6318   -1.4986 C   0  0  0  0  0  0  0  0  0  0  0  0
   16.8426   -6.8022   -0.7217 C   0  0  0  0  0  0  0  0  0  0  0  0
   17.8143   -7.1524   -0.3899 H   0  0  0  0  0  0  0  0  0  0  0  0
   16.4069   -5.5183   -0.3677 C   0  0  0  0  0  0  0  0  0  0  0  0
   17.0505   -4.8794    0.2307 H   0  0  0  0  0  0  0  0  0  0  0  0
   15.1463   -5.0524   -0.7765 C   0  0  0  0  0  0  0  0  0  0  0  0
   14.6615   -3.6357   -0.4641 C   0  0  0  0  0  0  0  0  0  0  0  0
   14.8139   -2.7097   -1.6740 C   0  0  0  0  0  0  0  0  0  0  0  0
   15.3995   -3.1779   -2.8616 C   0  0  0  0  0  0  0  0  0  0  0  0
   15.8871   -4.1481   -2.8681 H   0  0  0  0  0  0  0  0  0  0  0  0
   15.3644   -2.4195   -4.0353 C   0  0  0  0  0  0  0  0  0  0  0  0
   15.7889   -2.8045   -4.9546 H   0  0  0  0  0  0  0  0  0  0  0  0
   14.8102   -1.1412   -4.0232 C   0  0  0  0  0  0  0  0  0  0  0  0
   14.8161   -0.5398   -4.9284 H   0  0  0  0  0  0  0  0  0  0  0  0
   14.2999   -0.6058   -2.8397 C   0  0  0  0  0  0  0  0  0  0  0  0
   13.8312    0.8285   -2.8332 C   0  0  0  0  0  0  0  0  0  0  0  0
   13.5463    1.1593   -3.8368 H   0  0  0  0  0  0  0  0  0  0  0  0
   12.9424    0.9280   -2.2023 H   0  0  0  0  0  0  0  0  0  0  0  0
   14.9462    1.6814   -2.2908 C   0  0  0  0  0  0  0  0  0  0  0  0
   14.6612    2.5466   -1.2213 C   0  0  0  0  0  0  0  0  0  0  0  0
   13.6343    2.6457   -0.8684 H   0  0  0  0  0  0  0  0  0  0  0  0
   15.6948    3.2638   -0.6056 C   0  0  0  0  0  0  0  0  0  0  0  0
   15.4836    3.9346    0.2258 H   0  0  0  0  0  0  0  0  0  0  0  0
   17.0129    3.0891   -1.0345 C   0  0  0  0  0  0  0  0  0  0  0  0
   17.8283    3.5945   -0.5270 H   0  0  0  0  0  0  0  0  0  0  0  0
   17.2952    2.2768   -2.1330 C   0  0  0  0  0  0  0  0  0  0  0  0
   18.3210    2.1629   -2.4690 H   0  0  0  0  0  0  0  0  0  0  0  0
   16.2717    1.5831   -2.7812 C   0  0  0  0  0  0  0  0  0  0  0  0
   16.6909    0.6030   -4.1718 Cl  0  0  0  0  0  0  0  0  0  0  0  0
   14.2839   -1.3986   -1.6761 C   0  0  0  0  0  0  0  0  0  0  0  0
   13.8467   -0.9887   -0.7687 H   0  0  0  0  0  0  0  0  0  0  0  0
   13.1777   -3.6036   -0.0479 C   0  0  0  0  0  0  0  0  0  0  0  0
   12.2191   -4.0018   -0.7022 O   0  0  0  0  0  0  0  0  0  0  0  0
   13.0485   -2.9296    1.1510 N   0  0  0  0  0  0  0  0  0  0  0  0
   11.8194   -2.3489    1.6922 C   0  0  0  0  0  0  0  0  0  0  0  0
   10.9846   -2.4794    0.9952 H   0  0  0  0  0  0  0  0  0  0  0  0
   11.9467   -1.2724    1.8620 H   0  0  0  0  0  0  0  0  0  0  0  0
   11.5499   -2.8220    2.6436 H   0  0  0  0  0  0  0  0  0  0  0  0
   14.3219   -2.6398    1.5754 C   0  0  0  0  0  0  0  0  0  0  0  0
   14.5827   -1.9712    2.7307 N   0  0  0  0  0  0  0  0  0  0  0  0
   15.5263   -2.0515    3.0957 H   0  0  0  0  0  0  0  0  0  0  0  0
   13.8182   -1.8958    3.3957 H   0  0  0  0  0  0  0  0  0  0  0  0
   15.2425   -3.0612    0.7703 N   0  0  0  0  0  4  0  0  0  0  0  0
   16.2448   -2.9609    0.9414 H   0  0  0  0  0  0  0  0  0  0  0  0
   14.3405   -5.8965   -1.5631 C   0  0  0  0  0  0  0  0  0  0  0  0
   13.3677   -5.5499   -1.9004 H   0  0  0  0  0  0  0  0  0  0  0  0
   14.7775   -7.1770   -1.9209 C   0  0  0  0  0  0  0  0  0  0  0  0
   14.1406   -7.8143   -2.5260 H   0  0  0  0  0  0  0  0  0  0  0  0
  1  2  1  0
  2  3  2  0
  3  4  1  0
  3  5  1  0
  5  6  1  0
  5  7  2  0
  7  8  1  0
  8  9  1  0
  9 10  2  0
 10 11  1  0
 10 12  1  0
 12 13  1  0
 12 14  2  0
 14 15  1  0
 14 16  1  0
 16 17  1  0
 17 18  1  0
 17 19  1  0
 17 20  1  0
 20 21  2  0
 21 22  1  0
 21 23  1  0
 23 24  1  0
 23 25  2  0
 25 26  1  0
 25 27  1  0
 27 28  1  0
 27 29  2  0
 29 30  1  0
 16 31  2  0
 31 32  1  0
  8 33  1  0
 33 34  2  0
 33 35  1  0
 35 36  1  0
 36 37  1  0
 36 38  1  0
 36 39  1  0
 35 40  1  0
 40 41  1  0
 41 42  1  0
 41 43  1  0
 40 44  2  0
 44 45  1  0
  7 46  1  0
 46 47  1  0
 46 48  2  0
 48 49  1  0
 48  2  1  0
 44  8  1  0
 31  9  1  0
 29 20  1  0
M  CHG  1  44   1
M  END
>  <score>  (13) 
6.37557

$$$$

     RDKit          3D

 63 67  0  0  0  0  0  0  0  0999 V2000
   16.0980   -8.4117   -1.6611 H   0  0  0  0  0  0  0  0  0  0  0  0
   15.8618   -7.3642   -1.4981 C   0  0  0  0  0  0  0  0  0  0  0  0
   16.7609   -6.5416   -0.8117 C   0  0  0  0  0  0  0  0  0  0  0  0
   17.6993   -6.9435   -0.4410 H   0  0  0  0  0  0  0  0  0  0  0  0
   16.4473   -5.1974   -0.5866 C   0  0  0  0  0  0  0  0  0  0  0  0
   17.1460   -4.5664   -0.0440 H   0  0  0  0  0  0  0  0  0  0  0  0
   15.2279   -4.6587   -1.0290 C   0  0  0  0  0  0  0  0  0  0  0  0
   14.8593   -3.2136   -0.7170 C   0  0  0  0  0  0  0  0  0  0  0  0
   15.3906   -2.2008   -1.7240 C   0  0  0  0  0  0  0  0  0  0  0  0
   15.9608   -2.5857   -2.9496 C   0  0  0  0  0  0  0  0  0  0  0  0
   16.0232   -3.6382   -3.2032 H   0  0  0  0  0  0  0  0  0  0  0  0
   16.4535   -1.6283   -3.8472 C   0  0  0  0  0  0  0  0  0  0  0  0
   16.8956   -1.9353   -4.7906 H   0  0  0  0  0  0  0  0  0  0  0  0
   16.3680   -0.2691   -3.5301 C   0  0  0  0  0  0  0  0  0  0  0  0
   16.7409    0.4953   -4.2018 H   0  0  0  0  0  0  0  0  0  0  0  0
   15.7524    0.1381   -2.3506 C   0  0  0  0  0  0  0  0  0  0  0  0
   15.5905    1.4978   -2.0925 N   0  0  0  0  0  0  0  0  0  0  0  0
   14.3611    1.9121   -1.4031 C   0  0  0  0  0  0  0  0  0  0  0  0
   13.5373    1.2206   -1.6044 H   0  0  0  0  0  0  0  0  0  0  0  0
   14.5333    1.9306   -0.3235 H   0  0  0  0  0  0  0  0  0  0  0  0
   14.0086    3.3095   -1.8794 C   0  0  0  0  0  0  0  0  0  0  0  0
   13.8877    3.3451   -2.9614 H   0  0  0  0  0  0  0  0  0  0  0  0
   13.0684    3.6281   -1.4194 H   0  0  0  0  0  0  0  0  0  0  0  0
   15.1394    4.2204   -1.4359 C   0  0  0  0  0  0  0  0  0  0  0  0
   14.9256    5.2561   -1.7292 H   0  0  0  0  0  0  0  0  0  0  0  0
   15.1399    4.1300    0.0247 N   0  0  0  0  0  0  0  0  0  0  0  0
   13.9761    4.7802    0.6221 C   0  0  0  0  0  0  0  0  0  0  0  0
   13.8541    5.7434    0.1204 H   0  0  0  0  0  0  0  0  0  0  0  0
   13.0567    4.2013    0.5137 H   0  0  0  0  0  0  0  0  0  0  0  0
   14.3372    4.9723    2.0830 C   0  0  0  0  0  0  0  0  0  0  0  0
   13.9053    4.1747    2.6776 H   0  0  0  0  0  0  0  0  0  0  0  0
   13.9691    5.9209    2.4733 H   0  0  0  0  0  0  0  0  0  0  0  0
   15.8500    4.8675    2.1333 C   0  0  0  0  0  0  0  0  0  0  0  0
   16.3199    5.7146    2.6450 H   0  0  0  0  0  0  0  0  0  0  0  0
   16.1323    3.9414    2.6290 H   0  0  0  0  0  0  0  0  0  0  0  0
   16.2564    4.7783    0.6832 C   0  0  0  0  0  0  0  0  0  0  0  0
   16.3178    5.7882    0.2817 H   0  0  0  0  0  0  0  0  0  0  0  0
   17.2038    4.2397    0.5500 H   0  0  0  0  0  0  0  0  0  0  0  0
   16.5020    3.8029   -2.0079 C   0  0  0  0  0  0  0  0  0  0  0  0
   16.5237    4.0636   -3.0653 H   0  0  0  0  0  0  0  0  0  0  0  0
   17.2894    4.3762   -1.5074 H   0  0  0  0  0  0  0  0  0  0  0  0
   16.7980    2.3108   -1.8512 C   0  0  0  0  0  0  0  0  0  0  0  0
   17.5904    2.0381   -2.5568 H   0  0  0  0  0  0  0  0  0  0  0  0
   17.1775    2.1224   -0.8418 H   0  0  0  0  0  0  0  0  0  0  0  0
   15.2654   -0.8255   -1.4611 C   0  0  0  0  0  0  0  0  0  0  0  0
   14.7953   -0.4816   -0.5451 H   0  0  0  0  0  0  0  0  0  0  0  0
   13.3438   -3.0128   -0.5456 C   0  0  0  0  0  0  0  0  0  0  0  0
   12.4735   -3.1739   -1.4008 O   0  0  0  0  0  0  0  0  0  0  0  0
   13.0713   -2.6301    0.7519 N   0  0  0  0  0  0  0  0  0  0  0  0
   11.7605   -2.2920    1.3059 C   0  0  0  0  0  0  0  0  0  0  0  0
   11.7248   -1.2336    1.5875 H   0  0  0  0  0  0  0  0  0  0  0  0
   10.9667   -2.4756    0.5720 H   0  0  0  0  0  0  0  0  0  0  0  0
   11.5470   -2.8978    2.1938 H   0  0  0  0  0  0  0  0  0  0  0  0
   14.2759   -2.5774    1.4179 C   0  0  0  0  0  0  0  0  0  0  0  0
   14.4508   -2.2586    2.7318 N   0  0  0  0  0  0  0  0  0  0  0  0
   15.3905   -2.2731    3.1247 H   0  0  0  0  0  0  0  0  0  0  0  0
   13.6407   -2.0835    3.3223 H   0  0  0  0  0  0  0  0  0  0  0  0
   15.2767   -2.8813    0.6632 N   0  0  0  0  0  4  0  0  0  0  0  0
   16.2382   -2.9630    1.0000 H   0  0  0  0  0  0  0  0  0  0  0  0
   14.3432   -5.4899   -1.7390 C   0  0  0  0  0  0  0  0  0  0  0  0
   13.3990   -5.0932   -2.1005 H   0  0  0  0  0  0  0  0  0  0  0  0
   14.6560   -6.8348   -1.9694 C   0  0  0  0  0  0  0  0  0  0  0  0
   13.9561   -7.4689   -2.5053 H   0  0  0  0  0  0  0  0  0  0  0  0
  1  2  1  0
  2  3  2  0
  3  4  1  0
  3  5  1  0
  5  6  1  0
  5  7  2  0
  7  8  1  0
  8  9  1  0
  9 10  2  0
 10 11  1  0
 10 12  1  0
 12 13  1  0
 12 14  2  0
 14 15  1  0
 14 16  1  0
 16 17  1  0
 17 18  1  0
 18 19  1  0
 18 20  1  0
 18 21  1  0
 21 22  1  0
 21 23  1  0
 21 24  1  0
 24 25  1  0
 24 26  1  0
 26 27  1  0
 27 28  1  0
 27 29  1  0
 27 30  1  0
 30 31  1  0
 30 32  1  0
 30 33  1  0
 33 34  1  0
 33 35  1  0
 33 36  1  0
 36 37  1  0
 36 38  1  0
 24 39  1  0
 39 40  1  0
 39 41  1  0
 39 42  1  0
 42 43  1  0
 42 44  1  0
 16 45  2  0
 45 46  1  0
  8 47  1  0
 47 48  2  0
 47 49  1  0
 49 50  1  0
 50 51  1  0
 50 52  1  0
 50 53  1  0
 49 54  1  0
 54 55  1  0
 55 56  1  0
 55 57  1  0
 54 58  2  0
 58 59  1  0
  7 60  1  0
 60 61  1  0
 60 62  2  0
 62 63  1  0
 62  2  1  0
 58  8  1  0
 45  9  1  0
 42 17  1  0
 36 26  1  0
M  CHG  1  58   1
M  END
>  <score>  (14) 
6.36583

$$$$

     RDKit          3D

 54 57  0  0  0  0  0  0  0  0999 V2000
   16.1115   -8.4491   -1.7812 H   0  0  0  0  0  0  0  0  0  0  0  0
   15.8766   -7.4053   -1.5842 C   0  0  0  0  0  0  0  0  0  0  0  0
   16.7827   -6.5996   -0.8859 C   0  0  0  0  0  0  0  0  0  0  0  0
   17.7279   -7.0162   -0.5481 H   0  0  0  0  0  0  0  0  0  0  0  0
   16.4669   -5.2612   -0.6048 C   0  0  0  0  0  0  0  0  0  0  0  0
   17.1809   -4.6586   -0.0502 H   0  0  0  0  0  0  0  0  0  0  0  0
   15.2391   -4.7023   -1.0107 C   0  0  0  0  0  0  0  0  0  0  0  0
   14.8569   -3.2529   -0.6815 C   0  0  0  0  0  0  0  0  0  0  0  0
   15.2815   -2.2454   -1.7483 C   0  0  0  0  0  0  0  0  0  0  0  0
   16.0891   -2.6189   -2.8366 C   0  0  0  0  0  0  0  0  0  0  0  0
   16.4374   -3.6450   -2.9121 H   0  0  0  0  0  0  0  0  0  0  0  0
   16.4393   -1.6887   -3.8242 C   0  0  0  0  0  0  0  0  0  0  0  0
   17.0491   -1.9910   -4.6707 H   0  0  0  0  0  0  0  0  0  0  0  0
   16.0049   -0.3633   -3.7198 C   0  0  0  0  0  0  0  0  0  0  0  0
   16.2865    0.3654   -4.4723 H   0  0  0  0  0  0  0  0  0  0  0  0
   15.2019    0.0302   -2.6517 C   0  0  0  0  0  0  0  0  0  0  0  0
   14.8785    1.3762   -2.5224 N   0  0  0  0  0  0  0  0  0  0  0  0
   15.6511    2.0015   -2.7070 H   0  0  0  0  0  0  0  0  0  0  0  0
   13.9985    1.8350   -1.5599 C   0  0  0  0  0  0  0  0  0  0  0  0
   12.9128    1.2842   -1.4333 O   0  0  0  0  0  0  0  0  0  0  0  0
   14.4655    2.8730   -0.6217 C   0  0  0  0  0  0  0  0  0  0  0  0
   13.6399    3.4392    0.3756 C   0  0  0  0  0  0  0  0  0  0  0  0
   12.5883    3.1675    0.4488 H   0  0  0  0  0  0  0  0  0  0  0  0
   14.1768    4.3495    1.2957 C   0  0  0  0  0  0  0  0  0  0  0  0
   13.5616    4.7845    2.0696 H   0  0  0  0  0  0  0  0  0  0  0  0
   15.5173    4.7387    1.2207 C   0  0  0  0  0  0  0  0  0  0  0  0
   16.0992    5.6705    2.0346 O   0  0  0  0  0  0  0  0  0  0  0  0
   15.3851    6.0742    3.1945 C   0  0  0  0  0  0  0  0  0  0  0  0
   15.7021    7.0773    3.4886 H   0  0  0  0  0  0  0  0  0  0  0  0
   15.6179    5.3760    4.0025 H   0  0  0  0  0  0  0  0  0  0  0  0
   14.3067    6.1012    3.0188 H   0  0  0  0  0  0  0  0  0  0  0  0
   16.3139    4.1898    0.2275 C   0  0  0  0  0  0  0  0  0  0  0  0
   17.3482    4.4730    0.1698 H   0  0  0  0  0  0  0  0  0  0  0  0
   15.8119    3.2708   -0.6786 C   0  0  0  0  0  0  0  0  0  0  0  0
   16.4917    2.8756   -1.4312 H   0  0  0  0  0  0  0  0  0  0  0  0
   14.8328   -0.9084   -1.6831 C   0  0  0  0  0  0  0  0  0  0  0  0
   14.2071   -0.5697   -0.8627 H   0  0  0  0  0  0  0  0  0  0  0  0
   13.3487   -3.0968   -0.4085 C   0  0  0  0  0  0  0  0  0  0  0  0
   12.4261   -3.2844   -1.1995 O   0  0  0  0  0  0  0  0  0  0  0  0
   13.1479   -2.6808    0.8874 N   0  0  0  0  0  0  0  0  0  0  0  0
   11.8826   -2.2813    1.5001 C   0  0  0  0  0  0  0  0  0  0  0  0
   11.0366   -2.7886    1.0241 H   0  0  0  0  0  0  0  0  0  0  0  0
   11.8838   -2.5432    2.5627 H   0  0  0  0  0  0  0  0  0  0  0  0
   11.7334   -1.1998    1.4071 H   0  0  0  0  0  0  0  0  0  0  0  0
   14.3817   -2.5970    1.4834 C   0  0  0  0  0  0  0  0  0  0  0  0
   14.5289   -2.3186    2.8139 N   0  0  0  0  0  0  0  0  0  0  0  0
   13.6900   -2.1586    3.3717 H   0  0  0  0  0  0  0  0  0  0  0  0
   15.4282   -1.9975    3.1624 H   0  0  0  0  0  0  0  0  0  0  0  0
   15.3496   -2.8643    0.6591 N   0  0  0  0  0  4  0  0  0  0  0  0
   16.3237   -2.9641    0.9444 H   0  0  0  0  0  0  0  0  0  0  0  0
   14.3542   -5.5207   -1.7365 C   0  0  0  0  0  0  0  0  0  0  0  0
   13.4062   -5.1152   -2.0738 H   0  0  0  0  0  0  0  0  0  0  0  0
   14.6650   -6.8585   -2.0180 C   0  0  0  0  0  0  0  0  0  0  0  0
   13.9562   -7.4754   -2.5636 H   0  0  0  0  0  0  0  0  0  0  0  0
  1  2  1  0
  2  3  2  0
  3  4  1  0
  3  5  1  0
  5  6  1  0
  5  7  2  0
  7  8  1  0
  8  9  1  0
  9 10  2  0
 10 11  1  0
 10 12  1  0
 12 13  1  0
 12 14  2  0
 14 15  1  0
 14 16  1  0
 16 17  1  0
 17 18  1  0
 17 19  1  0
 19 20  2  0
 19 21  1  0
 21 22  2  0
 22 23  1  0
 22 24  1  0
 24 25  1  0
 24 26  2  0
 26 27  1  0
 27 28  1  0
 28 29  1  0
 28 30  1  0
 28 31  1  0
 26 32  1  0
 32 33  1  0
 32 34  2  0
 34 35  1  0
 16 36  2  0
 36 37  1  0
  8 38  1  0
 38 39  2  0
 38 40  1  0
 40 41  1  0
 41 42  1  0
 41 43  1  0
 41 44  1  0
 40 45  1  0
 45 46  1  0
 46 47  1  0
 46 48  1  0
 45 49  2  0
 49 50  1  0
  7 51  1  0
 51 52  1  0
 51 53  2  0
 53 54  1  0
 53  2  1  0
 49  8  1  0
 36  9  1  0
 34 21  1  0
M  CHG  1  49   1
M  END
>  <score>  (15) 
6.3591

$$$$

     RDKit          3D

 48 52  0  0  0  0  0  0  0  0999 V2000
   16.1024   -8.4533   -1.6246 H   0  0  0  0  0  0  0  0  0  0  0  0
   15.8574   -7.4041   -1.4855 C   0  0  0  0  0  0  0  0  0  0  0  0
   16.7450   -6.5664   -0.8026 C   0  0  0  0  0  0  0  0  0  0  0  0
   17.6813   -6.9544   -0.4121 H   0  0  0  0  0  0  0  0  0  0  0  0
   16.4174   -5.2236   -0.5997 C   0  0  0  0  0  0  0  0  0  0  0  0
   17.0966   -4.5735   -0.0550 H   0  0  0  0  0  0  0  0  0  0  0  0
   15.1948   -4.7071   -1.0516 C   0  0  0  0  0  0  0  0  0  0  0  0
   14.8233   -3.2684   -0.7523 C   0  0  0  0  0  0  0  0  0  0  0  0
   15.3897   -2.2898   -1.7649 C   0  0  0  0  0  0  0  0  0  0  0  0
   15.9388   -2.6815   -3.0006 C   0  0  0  0  0  0  0  0  0  0  0  0
   15.9947   -3.7332   -3.2448 H   0  0  0  0  0  0  0  0  0  0  0  0
   16.4182   -1.7354   -3.9215 C   0  0  0  0  0  0  0  0  0  0  0  0
   16.8465   -2.0253   -4.8768 H   0  0  0  0  0  0  0  0  0  0  0  0
   16.3535   -0.3814   -3.6147 C   0  0  0  0  0  0  0  0  0  0  0  0
   16.7183    0.3710   -4.3114 H   0  0  0  0  0  0  0  0  0  0  0  0
   15.8026    0.0233   -2.4000 C   0  0  0  0  0  0  0  0  0  0  0  0
   15.7193    1.4342   -2.0868 C   0  0  0  0  0  0  0  0  0  0  0  0
   15.1745    1.8099   -0.9603 N   0  0  0  0  0  0  0  0  0  0  0  0
   15.1925    3.1739   -0.8916 C   0  0  0  0  0  0  0  0  0  0  0  0
   14.7272    3.8391    0.2246 C   0  0  0  0  0  0  0  0  0  0  0  0
   14.3267    3.2360    1.0273 H   0  0  0  0  0  0  0  0  0  0  0  0
   14.8316    5.2288    0.2734 C   0  0  0  0  0  0  0  0  0  0  0  0
   14.4961    5.7606    1.1548 H   0  0  0  0  0  0  0  0  0  0  0  0
   15.3847    5.9174   -0.8130 C   0  0  0  0  0  0  0  0  0  0  0  0
   15.4906    6.9810   -0.7184 H   0  0  0  0  0  0  0  0  0  0  0  0
   15.8117    5.2264   -1.9605 C   0  0  0  0  0  0  0  0  0  0  0  0
   16.2271    5.7243   -2.8275 H   0  0  0  0  0  0  0  0  0  0  0  0
   15.7310    3.8432   -1.9720 C   0  0  0  0  0  0  0  0  0  0  0  0
   16.2744    2.7118   -3.1680 S   0  0  0  0  0  0  0  0  0  0  0  0
   15.3175   -0.9252   -1.4893 C   0  0  0  0  0  0  0  0  0  0  0  0
   14.8833   -0.5826   -0.5495 H   0  0  0  0  0  0  0  0  0  0  0  0
   13.3043   -3.0511   -0.5866 C   0  0  0  0  0  0  0  0  0  0  0  0
   12.4401   -3.1587   -1.4578 O   0  0  0  0  0  0  0  0  0  0  0  0
   13.0354   -2.6851    0.7156 N   0  0  0  0  0  0  0  0  0  0  0  0
   11.7348   -2.3146    1.2777 C   0  0  0  0  0  0  0  0  0  0  0  0
   11.7234   -1.2580    1.5605 H   0  0  0  0  0  0  0  0  0  0  0  0
   11.5053   -2.9113    2.1658 H   0  0  0  0  0  0  0  0  0  0  0  0
   10.9308   -2.4767    0.5524 H   0  0  0  0  0  0  0  0  0  0  0  0
   14.2432   -2.6207    1.3775 C   0  0  0  0  0  0  0  0  0  0  0  0
   14.4193   -2.2872    2.6833 N   0  0  0  0  0  0  0  0  0  0  0  0
   13.6068   -2.1156    3.2727 H   0  0  0  0  0  0  0  0  0  0  0  0
   15.3569   -2.3157    3.0824 H   0  0  0  0  0  0  0  0  0  0  0  0
   15.2457   -2.9219    0.6203 N   0  0  0  0  0  4  0  0  0  0  0  0
   16.2119   -2.9723    0.9465 H   0  0  0  0  0  0  0  0  0  0  0  0
   14.3192   -5.5490   -1.7571 C   0  0  0  0  0  0  0  0  0  0  0  0
   13.3681   -5.1666   -2.1171 H   0  0  0  0  0  0  0  0  0  0  0  0
   14.6490   -6.8928   -1.9715 C   0  0  0  0  0  0  0  0  0  0  0  0
   13.9566   -7.5492   -2.4900 H   0  0  0  0  0  0  0  0  0  0  0  0
  1  2  1  0
  2  3  2  0
  3  4  1  0
  3  5  1  0
  5  6  1  0
  5  7  2  0
  7  8  1  0
  8  9  1  0
  9 10  2  0
 10 11  1  0
 10 12  1  0
 12 13  1  0
 12 14  2  0
 14 15  1  0
 14 16  1  0
 16 17  1  0
 17 18  2  0
 18 19  1  0
 19 20  2  0
 20 21  1  0
 20 22  1  0
 22 23  1  0
 22 24  2  0
 24 25  1  0
 24 26  1  0
 26 27  1  0
 26 28  2  0
 28 29  1  0
 16 30  2  0
 30 31  1  0
  8 32  1  0
 32 33  2  0
 32 34  1  0
 34 35  1  0
 35 36  1  0
 35 37  1  0
 35 38  1  0
 34 39  1  0
 39 40  1  0
 40 41  1  0
 40 42  1  0
 39 43  2  0
 43 44  1  0
  7 45  1  0
 45 46  1  0
 45 47  2  0
 47 48  1  0
 47  2  1  0
 43  8  1  0
 30  9  1  0
 29 17  1  0
 28 19  1  0
M  CHG  1  43   1
M  END
>  <score>  (16) 
6.34571

$$$$

     RDKit          3D

 49 52  0  0  0  0  0  0  0  0999 V2000
   16.1701   -8.4554   -1.7202 H   0  0  0  0  0  0  0  0  0  0  0  0
   15.9147   -7.4152   -1.5318 C   0  0  0  0  0  0  0  0  0  0  0  0
   16.7910   -6.5915   -0.8151 C   0  0  0  0  0  0  0  0  0  0  0  0
   17.7372   -6.9900   -0.4554 H   0  0  0  0  0  0  0  0  0  0  0  0
   16.4445   -5.2575   -0.5505 C   0  0  0  0  0  0  0  0  0  0  0  0
   17.1355   -4.6332    0.0074 H   0  0  0  0  0  0  0  0  0  0  0  0
   15.2197   -4.7256   -0.9920 C   0  0  0  0  0  0  0  0  0  0  0  0
   14.8006   -3.2911   -0.6720 C   0  0  0  0  0  0  0  0  0  0  0  0
   15.1512   -2.2805   -1.7683 C   0  0  0  0  0  0  0  0  0  0  0  0
   16.0302   -2.5811   -2.8233 C   0  0  0  0  0  0  0  0  0  0  0  0
   16.5587   -3.5301   -2.8259 H   0  0  0  0  0  0  0  0  0  0  0  0
   16.2324   -1.6685   -3.8671 C   0  0  0  0  0  0  0  0  0  0  0  0
   16.8983   -1.9114   -4.6865 H   0  0  0  0  0  0  0  0  0  0  0  0
   15.5861   -0.4302   -3.8580 C   0  0  0  0  0  0  0  0  0  0  0  0
   15.7568    0.2904   -4.6533 H   0  0  0  0  0  0  0  0  0  0  0  0
   14.7342   -0.0977   -2.8027 C   0  0  0  0  0  0  0  0  0  0  0  0
   14.1389    1.2823   -2.7242 C   0  0  0  0  0  0  0  0  0  0  0  0
   13.0961    1.2286   -2.3820 H   0  0  0  0  0  0  0  0  0  0  0  0
   14.1447    1.7752   -3.7000 H   0  0  0  0  0  0  0  0  0  0  0  0
   14.9780    2.0699   -1.7605 C   0  0  0  0  0  0  0  0  0  0  0  0
   16.3750    2.1318   -1.8648 C   0  0  0  0  0  0  0  0  0  0  0  0
   16.8702    1.6426   -2.6994 H   0  0  0  0  0  0  0  0  0  0  0  0
   17.1193    2.8193   -0.9047 C   0  0  0  0  0  0  0  0  0  0  0  0
   18.1909    2.8713   -1.0268 H   0  0  0  0  0  0  0  0  0  0  0  0
   16.4833    3.3863    0.2112 C   0  0  0  0  0  0  0  0  0  0  0  0
   17.0562    3.8519    1.0083 H   0  0  0  0  0  0  0  0  0  0  0  0
   15.0867    3.3364    0.3094 C   0  0  0  0  0  0  0  0  0  0  0  0
   14.2443    4.0243    1.6808 Cl  0  0  0  0  0  0  0  0  0  0  0  0
   14.3509    2.7022   -0.6886 C   0  0  0  0  0  0  0  0  0  0  0  0
   13.2706    2.6747   -0.6063 H   0  0  0  0  0  0  0  0  0  0  0  0
   14.5255   -1.0188   -1.7666 C   0  0  0  0  0  0  0  0  0  0  0  0
   13.8666   -0.7513   -0.9435 H   0  0  0  0  0  0  0  0  0  0  0  0
   13.2841   -3.2167   -0.3895 C   0  0  0  0  0  0  0  0  0  0  0  0
   12.3710   -3.4590   -1.1745 O   0  0  0  0  0  0  0  0  0  0  0  0
   13.0642   -2.7259    0.8812 N   0  0  0  0  0  0  0  0  0  0  0  0
   11.7769   -2.2926    1.4312 C   0  0  0  0  0  0  0  0  0  0  0  0
   11.8024   -1.2236    1.6740 H   0  0  0  0  0  0  0  0  0  0  0  0
   10.9699   -2.4530    0.7058 H   0  0  0  0  0  0  0  0  0  0  0  0
   11.5280   -2.8519    2.3407 H   0  0  0  0  0  0  0  0  0  0  0  0
   14.3007   -2.5538    1.4604 C   0  0  0  0  0  0  0  0  0  0  0  0
   14.5031   -2.1112    2.7327 N   0  0  0  0  0  0  0  0  0  0  0  0
   13.6993   -2.0846    3.3594 H   0  0  0  0  0  0  0  0  0  0  0  0
   15.4306   -2.2440    3.1323 H   0  0  0  0  0  0  0  0  0  0  0  0
   15.2760   -2.8700    0.6657 N   0  0  0  0  0  4  0  0  0  0  0  0
   16.2563   -2.8639    0.9510 H   0  0  0  0  0  0  0  0  0  0  0  0
   14.3577   -5.5673   -1.7197 C   0  0  0  0  0  0  0  0  0  0  0  0
   13.4096   -5.1855   -2.0836 H   0  0  0  0  0  0  0  0  0  0  0  0
   14.6960   -6.9007   -1.9855 C   0  0  0  0  0  0  0  0  0  0  0  0
   14.0086   -7.5376   -2.5374 H   0  0  0  0  0  0  0  0  0  0  0  0
  1  2  1  0
  2  3  2  0
  3  4  1  0
  3  5  1  0
  5  6  1  0
  5  7  2  0
  7  8  1  0
  8  9  1  0
  9 10  2  0
 10 11  1  0
 10 12  1  0
 12 13  1  0
 12 14  2  0
 14 15  1  0
 14 16  1  0
 16 17  1  0
 17 18  1  0
 17 19  1  0
 17 20  1  0
 20 21  2  0
 21 22  1  0
 21 23  1  0
 23 24  1  0
 23 25  2  0
 25 26  1  0
 25 27  1  0
 27 28  1  0
 27 29  2  0
 29 30  1  0
 16 31  2  0
 31 32  1  0
  8 33  1  0
 33 34  2  0
 33 35  1  0
 35 36  1  0
 36 37  1  0
 36 38  1  0
 36 39  1  0
 35 40  1  0
 40 41  1  0
 41 42  1  0
 41 43  1  0
 40 44  2  0
 44 45  1  0
  7 46  1  0
 46 47  1  0
 46 48  2  0
 48 49  1  0
 48  2  1  0
 44  8  1  0
 31  9  1  0
 29 20  1  0
M  CHG  1  44   1
M  END
>  <score>  (17) 
6.32693

$$$$

     RDKit          3D

 46 49  0  0  0  0  0  0  0  0999 V2000
   16.1233   -8.4878   -1.6111 H   0  0  0  0  0  0  0  0  0  0  0  0
   15.8528   -7.4428   -1.4718 C   0  0  0  0  0  0  0  0  0  0  0  0
   16.7276   -6.5847   -0.8018 C   0  0  0  0  0  0  0  0  0  0  0  0
   17.6731   -6.9558   -0.4176 H   0  0  0  0  0  0  0  0  0  0  0  0
   16.3905   -5.2395   -0.6123 C   0  0  0  0  0  0  0  0  0  0  0  0
   17.0663   -4.5889   -0.0647 H   0  0  0  0  0  0  0  0  0  0  0  0
   15.1723   -4.7171   -1.0747 C   0  0  0  0  0  0  0  0  0  0  0  0
   14.8139   -3.2524   -0.7846 C   0  0  0  0  0  0  0  0  0  0  0  0
   15.3868   -2.2461   -1.7814 C   0  0  0  0  0  0  0  0  0  0  0  0
   15.9423   -2.6400   -3.0085 C   0  0  0  0  0  0  0  0  0  0  0  0
   16.0025   -3.6927   -3.2604 H   0  0  0  0  0  0  0  0  0  0  0  0
   16.4239   -1.6894   -3.9182 C   0  0  0  0  0  0  0  0  0  0  0  0
   16.8539   -2.0034   -4.8632 H   0  0  0  0  0  0  0  0  0  0  0  0
   16.3550   -0.3255   -3.6180 C   0  0  0  0  0  0  0  0  0  0  0  0
   16.7059    0.4117   -4.3356 H   0  0  0  0  0  0  0  0  0  0  0  0
   15.7896    0.0998   -2.4087 C   0  0  0  0  0  0  0  0  0  0  0  0
   15.6924    1.5407   -2.0889 C   0  0  0  0  0  0  0  0  0  0  0  0
   14.4917    2.1094   -1.6397 C   0  0  0  0  0  0  0  0  0  0  0  0
   13.3802    1.3518   -1.5121 F   0  0  0  0  0  0  0  0  0  0  0  0
   14.4163    3.4791   -1.3440 C   0  0  0  0  0  0  0  0  0  0  0  0
   13.4748    3.8938   -1.0039 H   0  0  0  0  0  0  0  0  0  0  0  0
   15.5286    4.3128   -1.4812 C   0  0  0  0  0  0  0  0  0  0  0  0
   15.4636    5.3755   -1.2419 H   0  0  0  0  0  0  0  0  0  0  0  0
   16.7264    3.7491   -1.9228 C   0  0  0  0  0  0  0  0  0  0  0  0
   17.6126    4.3652   -2.0265 H   0  0  0  0  0  0  0  0  0  0  0  0
   16.8065    2.3798   -2.2192 C   0  0  0  0  0  0  0  0  0  0  0  0
   17.9874    1.8534   -2.5940 F   0  0  0  0  0  0  0  0  0  0  0  0
   15.3113   -0.8657   -1.5094 C   0  0  0  0  0  0  0  0  0  0  0  0
   14.8963   -0.5254   -0.5669 H   0  0  0  0  0  0  0  0  0  0  0  0
   13.2998   -3.0266   -0.6045 C   0  0  0  0  0  0  0  0  0  0  0  0
   12.4303   -3.0879   -1.4690 O   0  0  0  0  0  0  0  0  0  0  0  0
   13.0241   -2.6754    0.7030 N   0  0  0  0  0  0  0  0  0  0  0  0
   11.7210   -2.3136    1.2615 C   0  0  0  0  0  0  0  0  0  0  0  0
   11.6927   -1.2629    1.5577 H   0  0  0  0  0  0  0  0  0  0  0  0
   11.5028   -2.9144    2.1458 H   0  0  0  0  0  0  0  0  0  0  0  0
   10.9131   -2.4749    0.5430 H   0  0  0  0  0  0  0  0  0  0  0  0
   14.2233   -2.6289    1.3650 C   0  0  0  0  0  0  0  0  0  0  0  0
   14.3960   -2.3338    2.6859 N   0  0  0  0  0  0  0  0  0  0  0  0
   13.5812   -2.1265    3.2614 H   0  0  0  0  0  0  0  0  0  0  0  0
   15.3294   -2.3541    3.0924 H   0  0  0  0  0  0  0  0  0  0  0  0
   15.2193   -2.9040    0.5905 N   0  0  0  0  0  4  0  0  0  0  0  0
   16.1863   -2.9068    0.9007 H   0  0  0  0  0  0  0  0  0  0  0  0
   14.3023   -5.5898   -1.7672 C   0  0  0  0  0  0  0  0  0  0  0  0
   13.3527   -5.2372   -2.1604 H   0  0  0  0  0  0  0  0  0  0  0  0
   14.6426   -6.9412   -1.9616 C   0  0  0  0  0  0  0  0  0  0  0  0
   13.9733   -7.6163   -2.4881 H   0  0  0  0  0  0  0  0  0  0  0  0
  1  2  1  0
  2  3  2  0
  3  4  1  0
  3  5  1  0
  5  6  1  0
  5  7  2  0
  7  8  1  0
  8  9  1  0
  9 10  2  0
 10 11  1  0
 10 12  1  0
 12 13  1  0
 12 14  2  0
 14 15  1  0
 14 16  1  0
 16 17  1  0
 17 18  2  0
 18 19  1  0
 18 20  1  0
 20 21  1  0
 20 22  2  0
 22 23  1  0
 22 24  1  0
 24 25  1  0
 24 26  2  0
 26 27  1  0
 16 28  2  0
 28 29  1  0
  8 30  1  0
 30 31  2  0
 30 32  1  0
 32 33  1  0
 33 34  1  0
 33 35  1  0
 33 36  1  0
 32 37  1  0
 37 38  1  0
 38 39  1  0
 38 40  1  0
 37 41  2  0
 41 42  1  0
  7 43  1  0
 43 44  1  0
 43 45  2  0
 45 46  1  0
 45  2  1  0
 41  8  1  0
 28  9  1  0
 26 17  1  0
M  CHG  1  41   1
M  END
>  <score>  (18) 
6.32153

$$$$

     RDKit          3D

 61 64  0  0  0  0  0  0  0  0999 V2000
   16.1055   -8.4699   -1.6147 H   0  0  0  0  0  0  0  0  0  0  0  0
   15.8580   -7.4198   -1.4811 C   0  0  0  0  0  0  0  0  0  0  0  0
   16.7386   -6.5698   -0.8063 C   0  0  0  0  0  0  0  0  0  0  0  0
   17.6715   -6.9598   -0.4111 H   0  0  0  0  0  0  0  0  0  0  0  0
   16.4056   -5.2242   -0.6090 C   0  0  0  0  0  0  0  0  0  0  0  0
   17.0742   -4.5721   -0.0548 H   0  0  0  0  0  0  0  0  0  0  0  0
   15.1904   -4.6991   -1.0769 C   0  0  0  0  0  0  0  0  0  0  0  0
   14.8266   -3.2420   -0.7679 C   0  0  0  0  0  0  0  0  0  0  0  0
   15.3694   -2.2163   -1.7569 C   0  0  0  0  0  0  0  0  0  0  0  0
   15.9240   -2.6184   -2.9828 C   0  0  0  0  0  0  0  0  0  0  0  0
   15.9883   -3.6741   -3.2275 H   0  0  0  0  0  0  0  0  0  0  0  0
   16.3997   -1.6792   -3.9001 C   0  0  0  0  0  0  0  0  0  0  0  0
   16.8434   -1.9881   -4.8400 H   0  0  0  0  0  0  0  0  0  0  0  0
   16.3076   -0.3206   -3.6057 C   0  0  0  0  0  0  0  0  0  0  0  0
   16.6847    0.4298   -4.2910 H   0  0  0  0  0  0  0  0  0  0  0  0
   15.7398    0.1195   -2.4156 C   0  0  0  0  0  0  0  0  0  0  0  0
   15.6976    1.4793   -2.2563 O   0  0  0  0  0  0  0  0  0  0  0  0
   14.9909    2.0376   -1.1442 C   0  0  0  0  0  0  0  0  0  0  0  0
   15.2332    3.1039   -1.1093 H   0  0  0  0  0  0  0  0  0  0  0  0
   15.3433    1.5857   -0.2102 H   0  0  0  0  0  0  0  0  0  0  0  0
   13.4701    1.8969   -1.2594 C   0  0  0  0  0  0  0  0  0  0  0  0
   13.1867    0.8465   -1.1521 H   0  0  0  0  0  0  0  0  0  0  0  0
   13.0272    2.4591   -0.4335 H   0  0  0  0  0  0  0  0  0  0  0  0
   12.9191    2.4617   -2.5702 C   0  0  0  0  0  0  0  0  0  0  0  0
   13.3206    3.4710   -2.7266 H   0  0  0  0  0  0  0  0  0  0  0  0
   11.8254    2.5396   -2.5079 H   0  0  0  0  0  0  0  0  0  0  0  0
   13.2994    1.5855   -3.6905 N   0  0  0  0  0  0  0  0  0  0  0  0
   13.5847    2.2769   -4.9565 C   0  0  0  0  0  0  0  0  0  0  0  0
   14.1541    1.6143   -5.6173 H   0  0  0  0  0  0  0  0  0  0  0  0
   14.1807    3.1668   -4.7483 H   0  0  0  0  0  0  0  0  0  0  0  0
   12.2822    2.6958   -5.6351 C   0  0  0  0  0  0  0  0  0  0  0  0
   12.5020    3.2041   -6.5820 H   0  0  0  0  0  0  0  0  0  0  0  0
   11.7628    3.3989   -4.9750 H   0  0  0  0  0  0  0  0  0  0  0  0
   11.3965    1.4684   -5.8885 C   0  0  0  0  0  0  0  0  0  0  0  0
   11.8820    0.8143   -6.6235 H   0  0  0  0  0  0  0  0  0  0  0  0
   10.4324    1.7880   -6.3034 H   0  0  0  0  0  0  0  0  0  0  0  0
   11.1730    0.6982   -4.5725 C   0  0  0  0  0  0  0  0  0  0  0  0
   10.6195   -0.2247   -4.7824 H   0  0  0  0  0  0  0  0  0  0  0  0
   10.5793    1.3166   -3.8910 H   0  0  0  0  0  0  0  0  0  0  0  0
   12.5009    0.3620   -3.8737 C   0  0  0  0  0  0  0  0  0  0  0  0
   13.0667   -0.3454   -4.4880 H   0  0  0  0  0  0  0  0  0  0  0  0
   12.3061   -0.1046   -2.9008 H   0  0  0  0  0  0  0  0  0  0  0  0
   15.2809   -0.8288   -1.4863 C   0  0  0  0  0  0  0  0  0  0  0  0
   14.8655   -0.4695   -0.5506 H   0  0  0  0  0  0  0  0  0  0  0  0
   13.3077   -3.0356   -0.5944 C   0  0  0  0  0  0  0  0  0  0  0  0
   12.4520   -3.1065   -1.4694 O   0  0  0  0  0  0  0  0  0  0  0  0
   13.0288   -2.6803    0.7096 N   0  0  0  0  0  0  0  0  0  0  0  0
   11.7208   -2.3129    1.2691 C   0  0  0  0  0  0  0  0  0  0  0  0
   10.9148   -2.4803    0.5414 H   0  0  0  0  0  0  0  0  0  0  0  0
   11.7069   -1.2532    1.5540 H   0  0  0  0  0  0  0  0  0  0  0  0
   11.5093   -2.9174    2.1596 H   0  0  0  0  0  0  0  0  0  0  0  0
   14.2354   -2.6251    1.3693 C   0  0  0  0  0  0  0  0  0  0  0  0
   14.4056   -2.3076    2.6789 N   0  0  0  0  0  0  0  0  0  0  0  0
   13.5914   -2.1256    3.2609 H   0  0  0  0  0  0  0  0  0  0  0  0
   15.3438   -2.3415    3.0816 H   0  0  0  0  0  0  0  0  0  0  0  0
   15.2410   -2.9126    0.6122 N   0  0  0  0  0  4  0  0  0  0  0  0
   16.2067   -2.9555    0.9435 H   0  0  0  0  0  0  0  0  0  0  0  0
   14.3160   -5.5647   -1.7670 C   0  0  0  0  0  0  0  0  0  0  0  0
   13.3607   -5.1925   -2.1258 H   0  0  0  0  0  0  0  0  0  0  0  0
   14.6473   -6.9160   -1.9660 C   0  0  0  0  0  0  0  0  0  0  0  0
   13.9644   -7.5819   -2.4868 H   0  0  0  0  0  0  0  0  0  0  0  0
  1  2  1  0
  2  3  2  0
  3  4  1  0
  3  5  1  0
  5  6  1  0
  5  7  2  0
  7  8  1  0
  8  9  1  0
  9 10  2  0
 10 11  1  0
 10 12  1  0
 12 13  1  0
 12 14  2  0
 14 15  1  0
 14 16  1  0
 16 17  1  0
 17 18  1  0
 18 19  1  0
 18 20  1  0
 18 21  1  0
 21 22  1  0
 21 23  1  0
 21 24  1  0
 24 25  1  0
 24 26  1  0
 24 27  1  0
 27 28  1  0
 28 29  1  0
 28 30  1  0
 28 31  1  0
 31 32  1  0
 31 33  1  0
 31 34  1  0
 34 35  1  0
 34 36  1  0
 34 37  1  0
 37 38  1  0
 37 39  1  0
 37 40  1  0
 40 41  1  0
 40 42  1  0
 16 43  2  0
 43 44  1  0
  8 45  1  0
 45 46  2  0
 45 47  1  0
 47 48  1  0
 48 49  1  0
 48 50  1  0
 48 51  1  0
 47 52  1  0
 52 53  1  0
 53 54  1  0
 53 55  1  0
 52 56  2  0
 56 57  1  0
  7 58  1  0
 58 59  1  0
 58 60  2  0
 60 61  1  0
 60  2  1  0
 56  8  1  0
 43  9  1  0
 40 27  1  0
M  CHG  1  56   1
M  END
>  <score>  (19) 
6.30614

$$$$

     RDKit          3D

 46 49  0  0  0  0  0  0  0  0999 V2000
   16.1392   -8.3931   -1.6974 H   0  0  0  0  0  0  0  0  0  0  0  0
   15.8869   -7.3540   -1.5150 C   0  0  0  0  0  0  0  0  0  0  0  0
   16.7735   -6.5385   -0.8029 C   0  0  0  0  0  0  0  0  0  0  0  0
   17.7209   -6.9267   -0.4412 H   0  0  0  0  0  0  0  0  0  0  0  0
   16.4385   -5.2084   -0.5339 C   0  0  0  0  0  0  0  0  0  0  0  0
   17.1273   -4.5699    0.0150 H   0  0  0  0  0  0  0  0  0  0  0  0
   15.2122   -4.6786   -0.9685 C   0  0  0  0  0  0  0  0  0  0  0  0
   14.8380   -3.2327   -0.6580 C   0  0  0  0  0  0  0  0  0  0  0  0
   15.4125   -2.2440   -1.6641 C   0  0  0  0  0  0  0  0  0  0  0  0
   15.9087   -2.6521   -2.9154 C   0  0  0  0  0  0  0  0  0  0  0  0
   15.9533   -3.7086   -3.1622 H   0  0  0  0  0  0  0  0  0  0  0  0
   16.3258   -1.7087   -3.8595 C   0  0  0  0  0  0  0  0  0  0  0  0
   16.7017   -2.0323   -4.8245 H   0  0  0  0  0  0  0  0  0  0  0  0
   16.2382   -0.3444   -3.5730 C   0  0  0  0  0  0  0  0  0  0  0  0
   16.5381    0.3837   -4.3204 H   0  0  0  0  0  0  0  0  0  0  0  0
   15.7676    0.0880   -2.3260 C   0  0  0  0  0  0  0  0  0  0  0  0
   15.6998    1.5206   -2.0109 C   0  0  0  0  0  0  0  0  0  0  0  0
   16.1769    1.9819   -0.7734 C   0  0  0  0  0  0  0  0  0  0  0  0
   16.5681    1.2724   -0.0503 H   0  0  0  0  0  0  0  0  0  0  0  0
   16.1790    3.3480   -0.4719 C   0  0  0  0  0  0  0  0  0  0  0  0
   16.5796    3.6943    0.4767 H   0  0  0  0  0  0  0  0  0  0  0  0
   15.6641    4.2653   -1.3917 C   0  0  0  0  0  0  0  0  0  0  0  0
   15.6532    5.3254   -1.1531 H   0  0  0  0  0  0  0  0  0  0  0  0
   15.1506    3.8099   -2.6110 C   0  0  0  0  0  0  0  0  0  0  0  0
   14.7258    4.5137   -3.3189 H   0  0  0  0  0  0  0  0  0  0  0  0
   15.1762    2.4466   -2.9319 C   0  0  0  0  0  0  0  0  0  0  0  0
   14.5194    1.9150   -4.4648 Cl  0  0  0  0  0  0  0  0  0  0  0  0
   15.3618   -0.8664   -1.3839 C   0  0  0  0  0  0  0  0  0  0  0  0
   14.9688   -0.5211   -0.4302 H   0  0  0  0  0  0  0  0  0  0  0  0
   13.3165   -3.0050   -0.5472 C   0  0  0  0  0  0  0  0  0  0  0  0
   12.4505   -3.2642   -1.3824 O   0  0  0  0  0  0  0  0  0  0  0  0
   13.0151   -2.4788    0.6934 N   0  0  0  0  0  0  0  0  0  0  0  0
   11.6632   -2.2424    1.1932 C   0  0  0  0  0  0  0  0  0  0  0  0
   10.9252   -2.4167    0.4043 H   0  0  0  0  0  0  0  0  0  0  0  0
   11.5348   -1.2145    1.5418 H   0  0  0  0  0  0  0  0  0  0  0  0
   11.4369   -2.9264    2.0128 H   0  0  0  0  0  0  0  0  0  0  0  0
   14.1846   -2.4620    1.4182 C   0  0  0  0  0  0  0  0  0  0  0  0
   14.3244   -2.1169    2.7282 N   0  0  0  0  0  0  0  0  0  0  0  0
   13.4817   -1.9990    3.2866 H   0  0  0  0  0  0  0  0  0  0  0  0
   15.2163   -2.3192    3.1768 H   0  0  0  0  0  0  0  0  0  0  0  0
   15.2025   -2.8627    0.7295 N   0  0  0  0  0  4  0  0  0  0  0  0
   16.1429   -2.9492    1.1153 H   0  0  0  0  0  0  0  0  0  0  0  0
   14.3387   -5.4997   -1.7036 C   0  0  0  0  0  0  0  0  0  0  0  0
   13.3932   -5.0998   -2.0623 H   0  0  0  0  0  0  0  0  0  0  0  0
   14.6690   -6.8325   -1.9657 C   0  0  0  0  0  0  0  0  0  0  0  0
   13.9776   -7.4598   -2.5177 H   0  0  0  0  0  0  0  0  0  0  0  0
  1  2  1  0
  2  3  2  0
  3  4  1  0
  3  5  1  0
  5  6  1  0
  5  7  2  0
  7  8  1  0
  8  9  1  0
  9 10  2  0
 10 11  1  0
 10 12  1  0
 12 13  1  0
 12 14  2  0
 14 15  1  0
 14 16  1  0
 16 17  1  0
 17 18  2  0
 18 19  1  0
 18 20  1  0
 20 21  1  0
 20 22  2  0
 22 23  1  0
 22 24  1  0
 24 25  1  0
 24 26  2  0
 26 27  1  0
 16 28  2  0
 28 29  1  0
  8 30  1  0
 30 31  2  0
 30 32  1  0
 32 33  1  0
 33 34  1  0
 33 35  1  0
 33 36  1  0
 32 37  1  0
 37 38  1  0
 38 39  1  0
 38 40  1  0
 37 41  2  0
 41 42  1  0
  7 43  1  0
 43 44  1  0
 43 45  2  0
 45 46  1  0
 45  2  1  0
 41  8  1  0
 28  9  1  0
 26 17  1  0
M  CHG  1  41   1
M  END
>  <score>  (20) 
6.29878

$$$$

     RDKit          3D

 50 53  0  0  0  0  0  0  0  0999 V2000
   16.1048   -8.4644   -1.6168 H   0  0  0  0  0  0  0  0  0  0  0  0
   15.8588   -7.4148   -1.4821 C   0  0  0  0  0  0  0  0  0  0  0  0
   16.7400   -6.5690   -0.8026 C   0  0  0  0  0  0  0  0  0  0  0  0
   17.6760   -6.9579   -0.4115 H   0  0  0  0  0  0  0  0  0  0  0  0
   16.4055   -5.2249   -0.6048 C   0  0  0  0  0  0  0  0  0  0  0  0
   17.0824   -4.5750   -0.0575 H   0  0  0  0  0  0  0  0  0  0  0  0
   15.1887   -4.7007   -1.0690 C   0  0  0  0  0  0  0  0  0  0  0  0
   14.8249   -3.2446   -0.7702 C   0  0  0  0  0  0  0  0  0  0  0  0
   15.3940   -2.2365   -1.7687 C   0  0  0  0  0  0  0  0  0  0  0  0
   15.9404   -2.6378   -3.0000 C   0  0  0  0  0  0  0  0  0  0  0  0
   15.9945   -3.6978   -3.2382 H   0  0  0  0  0  0  0  0  0  0  0  0
   16.4104   -1.6860   -3.9155 C   0  0  0  0  0  0  0  0  0  0  0  0
   16.8416   -2.0032   -4.8604 H   0  0  0  0  0  0  0  0  0  0  0  0
   16.3273   -0.3204   -3.6144 C   0  0  0  0  0  0  0  0  0  0  0  0
   16.6964    0.4153   -4.3227 H   0  0  0  0  0  0  0  0  0  0  0  0
   15.7969    0.1115   -2.3921 C   0  0  0  0  0  0  0  0  0  0  0  0
   15.7185    1.5497   -2.0776 C   0  0  0  0  0  0  0  0  0  0  0  0
   15.9643    2.0116   -0.7740 C   0  0  0  0  0  0  0  0  0  0  0  0
   16.2240    1.3073    0.0106 H   0  0  0  0  0  0  0  0  0  0  0  0
   15.8786    3.3781   -0.4839 C   0  0  0  0  0  0  0  0  0  0  0  0
   16.0773    3.7616    0.5107 H   0  0  0  0  0  0  0  0  0  0  0  0
   15.5060    4.2874   -1.4835 C   0  0  0  0  0  0  0  0  0  0  0  0
   15.3313    5.6251   -1.2931 O   0  0  0  0  0  0  0  0  0  0  0  0
   15.4469    6.0502    0.0559 C   0  0  0  0  0  0  0  0  0  0  0  0
   16.2674    5.5359    0.5646 H   0  0  0  0  0  0  0  0  0  0  0  0
   14.5060    5.8279    0.5697 H   0  0  0  0  0  0  0  0  0  0  0  0
   15.6291    7.1299    0.0685 H   0  0  0  0  0  0  0  0  0  0  0  0
   15.2785    3.8386   -2.7721 C   0  0  0  0  0  0  0  0  0  0  0  0
   14.9940    4.5778   -3.5136 H   0  0  0  0  0  0  0  0  0  0  0  0
   15.3899    2.4810   -3.0779 C   0  0  0  0  0  0  0  0  0  0  0  0
   15.1850    2.1357   -4.0861 H   0  0  0  0  0  0  0  0  0  0  0  0
   15.3347   -0.8557   -1.4835 C   0  0  0  0  0  0  0  0  0  0  0  0
   14.9022   -0.5238   -0.5442 H   0  0  0  0  0  0  0  0  0  0  0  0
   13.3028   -3.0354   -0.5956 C   0  0  0  0  0  0  0  0  0  0  0  0
   12.4393   -3.1258   -1.4694 O   0  0  0  0  0  0  0  0  0  0  0  0
   13.0283   -2.6812    0.7091 N   0  0  0  0  0  0  0  0  0  0  0  0
   11.7241   -2.3137    1.2733 C   0  0  0  0  0  0  0  0  0  0  0  0
   11.5030   -2.9199    2.1607 H   0  0  0  0  0  0  0  0  0  0  0  0
   11.7133   -1.2547    1.5593 H   0  0  0  0  0  0  0  0  0  0  0  0
   10.9212   -2.4765    0.5431 H   0  0  0  0  0  0  0  0  0  0  0  0
   14.2378   -2.6239    1.3686 C   0  0  0  0  0  0  0  0  0  0  0  0
   14.4089   -2.3028    2.6807 N   0  0  0  0  0  0  0  0  0  0  0  0
   15.3448   -2.3360    3.0822 H   0  0  0  0  0  0  0  0  0  0  0  0
   13.5955   -2.1239    3.2662 H   0  0  0  0  0  0  0  0  0  0  0  0
   15.2439   -2.9119    0.6106 N   0  0  0  0  0  4  0  0  0  0  0  0
   16.2121   -2.9551    0.9381 H   0  0  0  0  0  0  0  0  0  0  0  0
   14.3156   -5.5618   -1.7647 C   0  0  0  0  0  0  0  0  0  0  0  0
   13.3624   -5.1874   -2.1260 H   0  0  0  0  0  0  0  0  0  0  0  0
   14.6484   -6.9107   -1.9685 C   0  0  0  0  0  0  0  0  0  0  0  0
   13.9606   -7.5737   -2.4870 H   0  0  0  0  0  0  0  0  0  0  0  0
  1  2  1  0
  2  3  2  0
  3  4  1  0
  3  5  1  0
  5  6  1  0
  5  7  2  0
  7  8  1  0
  8  9  1  0
  9 10  2  0
 10 11  1  0
 10 12  1  0
 12 13  1  0
 12 14  2  0
 14 15  1  0
 14 16  1  0
 16 17  1  0
 17 18  2  0
 18 19  1  0
 18 20  1  0
 20 21  1  0
 20 22  2  0
 22 23  1  0
 23 24  1  0
 24 25  1  0
 24 26  1  0
 24 27  1  0
 22 28  1  0
 28 29  1  0
 28 30  2  0
 30 31  1  0
 16 32  2  0
 32 33  1  0
  8 34  1  0
 34 35  2  0
 34 36  1  0
 36 37  1  0
 37 38  1  0
 37 39  1  0
 37 40  1  0
 36 41  1  0
 41 42  1  0
 42 43  1  0
 42 44  1  0
 41 45  2  0
 45 46  1  0
  7 47  1  0
 47 48  1  0
 47 49  2  0
 49 50  1  0
 49  2  1  0
 45  8  1  0
 32  9  1  0
 30 17  1  0
M  CHG  1  45   1
M  END
>  <score>  (21) 
6.28376

$$$$

     RDKit          3D

 53 56  0  0  0  0  0  0  0  0999 V2000
   16.1367   -8.4313   -1.7327 H   0  0  0  0  0  0  0  0  0  0  0  0
   15.8903   -7.3952   -1.5280 C   0  0  0  0  0  0  0  0  0  0  0  0
   16.7874   -6.5869   -0.8196 C   0  0  0  0  0  0  0  0  0  0  0  0
   17.7395   -6.9850   -0.4803 H   0  0  0  0  0  0  0  0  0  0  0  0
   16.4570   -5.2587   -0.5398 C   0  0  0  0  0  0  0  0  0  0  0  0
   17.1553   -4.6267    0.0031 H   0  0  0  0  0  0  0  0  0  0  0  0
   15.2246   -4.7322   -0.9538 C   0  0  0  0  0  0  0  0  0  0  0  0
   14.8634   -3.2959   -0.6627 C   0  0  0  0  0  0  0  0  0  0  0  0
   15.4208   -2.3844   -1.7388 C   0  0  0  0  0  0  0  0  0  0  0  0
   15.9823   -2.8217   -2.9534 C   0  0  0  0  0  0  0  0  0  0  0  0
   16.0345   -3.8859   -3.1651 H   0  0  0  0  0  0  0  0  0  0  0  0
   16.4922   -1.9011   -3.8824 C   0  0  0  0  0  0  0  0  0  0  0  0
   16.9143   -2.2322   -4.8208 H   0  0  0  0  0  0  0  0  0  0  0  0
   16.4534   -0.5331   -3.6039 C   0  0  0  0  0  0  0  0  0  0  0  0
   16.8298    0.1933   -4.3192 H   0  0  0  0  0  0  0  0  0  0  0  0
   15.8617   -0.1046   -2.4166 C   0  0  0  0  0  0  0  0  0  0  0  0
   15.7134    1.2900   -2.0934 C   0  0  0  0  0  0  0  0  0  0  0  0
   14.5637    1.6718   -1.3975 C   0  0  0  0  0  0  0  0  0  0  0  0
   13.8431    0.9121   -1.1048 H   0  0  0  0  0  0  0  0  0  0  0  0
   14.3534    3.0044   -1.1069 C   0  0  0  0  0  0  0  0  0  0  0  0
   13.4549    3.3047   -0.5840 H   0  0  0  0  0  0  0  0  0  0  0  0
   15.3041    3.9595   -1.4780 C   0  0  0  0  0  0  0  0  0  0  0  0
   15.1467    5.2735   -1.1842 O   0  0  0  0  0  0  0  0  0  0  0  0
   14.3286    5.5047   -0.0484 C   0  0  0  0  0  0  0  0  0  0  0  0
   14.1433    6.5673   -0.0757 H   0  0  0  0  0  0  0  0  0  0  0  0
   13.3680    4.9967   -0.1485 H   0  0  0  0  0  0  0  0  0  0  0  0
   15.0165    5.0227    1.2380 C   0  0  0  0  0  0  0  0  0  0  0  0
   14.8363    3.9543    1.3775 H   0  0  0  0  0  0  0  0  0  0  0  0
   14.6181    5.5322    2.1209 H   0  0  0  0  0  0  0  0  0  0  0  0
   16.0977    5.1896    1.1722 H   0  0  0  0  0  0  0  0  0  0  0  0
   16.4660    3.5785   -2.1376 C   0  0  0  0  0  0  0  0  0  0  0  0
   17.1858    4.3558   -2.3687 H   0  0  0  0  0  0  0  0  0  0  0  0
   16.6835    2.2370   -2.4469 C   0  0  0  0  0  0  0  0  0  0  0  0
   17.6076    1.9412   -2.9367 H   0  0  0  0  0  0  0  0  0  0  0  0
   15.3430   -1.0203   -1.5129 C   0  0  0  0  0  0  0  0  0  0  0  0
   14.8648   -0.6481   -0.6132 H   0  0  0  0  0  0  0  0  0  0  0  0
   13.3463   -3.0798   -0.4682 C   0  0  0  0  0  0  0  0  0  0  0  0
   12.4557   -3.2877   -1.2881 O   0  0  0  0  0  0  0  0  0  0  0  0
   13.0999   -2.6118    0.8083 N   0  0  0  0  0  0  0  0  0  0  0  0
   11.7930   -2.2712    1.3725 C   0  0  0  0  0  0  0  0  0  0  0  0
   11.7518   -1.2105    1.6450 H   0  0  0  0  0  0  0  0  0  0  0  0
   11.5880   -2.8699    2.2673 H   0  0  0  0  0  0  0  0  0  0  0  0
   10.9943   -2.4646    0.6462 H   0  0  0  0  0  0  0  0  0  0  0  0
   14.3192   -2.5206    1.4464 C   0  0  0  0  0  0  0  0  0  0  0  0
   14.5029   -2.1125    2.7331 N   0  0  0  0  0  0  0  0  0  0  0  0
   15.4283   -2.2496    3.1413 H   0  0  0  0  0  0  0  0  0  0  0  0
   13.6912   -2.0775    3.3460 H   0  0  0  0  0  0  0  0  0  0  0  0
   15.3025   -2.8885    0.6924 N   0  0  0  0  0  4  0  0  0  0  0  0
   16.2773   -2.9183    1.0044 H   0  0  0  0  0  0  0  0  0  0  0  0
   14.3520   -5.5356   -1.7010 C   0  0  0  0  0  0  0  0  0  0  0  0
   13.4159   -5.1205   -2.0647 H   0  0  0  0  0  0  0  0  0  0  0  0
   14.6776   -6.8637   -1.9815 C   0  0  0  0  0  0  0  0  0  0  0  0
   13.9839   -7.4777   -2.5478 H   0  0  0  0  0  0  0  0  0  0  0  0
  1  2  1  0
  2  3  2  0
  3  4  1  0
  3  5  1  0
  5  6  1  0
  5  7  2  0
  7  8  1  0
  8  9  1  0
  9 10  2  0
 10 11  1  0
 10 12  1  0
 12 13  1  0
 12 14  2  0
 14 15  1  0
 14 16  1  0
 16 17  1  0
 17 18  2  0
 18 19  1  0
 18 20  1  0
 20 21  1  0
 20 22  2  0
 22 23  1  0
 23 24  1  0
 24 25  1  0
 24 26  1  0
 24 27  1  0
 27 28  1  0
 27 29  1  0
 27 30  1  0
 22 31  1  0
 31 32  1  0
 31 33  2  0
 33 34  1  0
 16 35  2  0
 35 36  1  0
  8 37  1  0
 37 38  2  0
 37 39  1  0
 39 40  1  0
 40 41  1  0
 40 42  1  0
 40 43  1  0
 39 44  1  0
 44 45  1  0
 45 46  1  0
 45 47  1  0
 44 48  2  0
 48 49  1  0
  7 50  1  0
 50 51  1  0
 50 52  2  0
 52 53  1  0
 52  2  1  0
 48  8  1  0
 35  9  1  0
 33 17  1  0
M  CHG  1  48   1
M  END
>  <score>  (22) 
6.28049

$$$$

     RDKit          3D

 48 51  0  0  0  0  0  0  0  0999 V2000
   16.1663   -8.4083   -1.7742 H   0  0  0  0  0  0  0  0  0  0  0  0
   15.9210   -7.3790   -1.5329 C   0  0  0  0  0  0  0  0  0  0  0  0
   16.8217   -6.5925   -0.8071 C   0  0  0  0  0  0  0  0  0  0  0  0
   17.7679   -7.0083   -0.4771 H   0  0  0  0  0  0  0  0  0  0  0  0
   16.5027   -5.2660   -0.4926 C   0  0  0  0  0  0  0  0  0  0  0  0
   17.2090   -4.6583    0.0682 H   0  0  0  0  0  0  0  0  0  0  0  0
   15.2738   -4.7144   -0.8915 C   0  0  0  0  0  0  0  0  0  0  0  0
   14.9117   -3.2661   -0.5767 C   0  0  0  0  0  0  0  0  0  0  0  0
   15.4329   -2.2948   -1.6313 C   0  0  0  0  0  0  0  0  0  0  0  0
   16.0469   -2.7432   -2.8148 C   0  0  0  0  0  0  0  0  0  0  0  0
   16.2314   -3.8045   -2.9674 H   0  0  0  0  0  0  0  0  0  0  0  0
   16.4148   -1.8302   -3.8041 C   0  0  0  0  0  0  0  0  0  0  0  0
   16.8951   -2.1859   -4.7108 H   0  0  0  0  0  0  0  0  0  0  0  0
   16.1418   -0.4691   -3.6422 C   0  0  0  0  0  0  0  0  0  0  0  0
   16.4032    0.2061   -4.4526 H   0  0  0  0  0  0  0  0  0  0  0  0
   15.5048    0.0080   -2.4769 C   0  0  0  0  0  0  0  0  0  0  0  0
   15.0732    1.4201   -2.3604 C   0  0  0  0  0  0  0  0  0  0  0  0
   14.9399    2.0891   -3.3866 O   0  0  0  0  0  0  0  0  0  0  0  0
   14.8990    2.1189   -1.0777 C   0  0  0  0  0  0  0  0  0  0  0  0
   15.9318    2.1368   -0.1211 C   0  0  0  0  0  0  0  0  0  0  0  0
   16.8177    1.5230   -0.2664 H   0  0  0  0  0  0  0  0  0  0  0  0
   15.8526    2.9854    0.9927 C   0  0  0  0  0  0  0  0  0  0  0  0
   16.6831    3.0148    1.6960 H   0  0  0  0  0  0  0  0  0  0  0  0
   14.7258    3.8013    1.1892 C   0  0  0  0  0  0  0  0  0  0  0  0
   14.5959    4.8822    2.5705 Cl  0  0  0  0  0  0  0  0  0  0  0  0
   13.6984    3.7713    0.2383 C   0  0  0  0  0  0  0  0  0  0  0  0
   12.8487    4.4332    0.3345 H   0  0  0  0  0  0  0  0  0  0  0  0
   13.7634    2.9204   -0.8643 C   0  0  0  0  0  0  0  0  0  0  0  0
   12.9341    2.9301   -1.5676 H   0  0  0  0  0  0  0  0  0  0  0  0
   15.1977   -0.9186   -1.4670 C   0  0  0  0  0  0  0  0  0  0  0  0
   14.6999   -0.5968   -0.5554 H   0  0  0  0  0  0  0  0  0  0  0  0
   13.3899   -3.0753   -0.3867 C   0  0  0  0  0  0  0  0  0  0  0  0
   12.5076   -3.2874   -1.2180 O   0  0  0  0  0  0  0  0  0  0  0  0
   13.1332   -2.6025    0.8843 N   0  0  0  0  0  0  0  0  0  0  0  0
   11.8233   -2.2480    1.4329 C   0  0  0  0  0  0  0  0  0  0  0  0
   11.7909   -1.1841    1.6907 H   0  0  0  0  0  0  0  0  0  0  0  0
   11.6084   -2.8330    2.3340 H   0  0  0  0  0  0  0  0  0  0  0  0
   11.0273   -2.4445    0.7038 H   0  0  0  0  0  0  0  0  0  0  0  0
   14.3464   -2.5048    1.5284 C   0  0  0  0  0  0  0  0  0  0  0  0
   14.5115   -2.0879    2.8155 N   0  0  0  0  0  0  0  0  0  0  0  0
   15.4266   -2.2203    3.2412 H   0  0  0  0  0  0  0  0  0  0  0  0
   13.6875   -2.0101    3.4108 H   0  0  0  0  0  0  0  0  0  0  0  0
   15.3400   -2.8645    0.7803 N   0  0  0  0  0  4  0  0  0  0  0  0
   16.3101   -2.8946    1.0987 H   0  0  0  0  0  0  0  0  0  0  0  0
   14.3946   -5.5052   -1.6528 C   0  0  0  0  0  0  0  0  0  0  0  0
   13.4550   -5.0859   -2.0009 H   0  0  0  0  0  0  0  0  0  0  0  0
   14.7123   -6.8293   -1.9661 C   0  0  0  0  0  0  0  0  0  0  0  0
   14.0131   -7.4278   -2.5403 H   0  0  0  0  0  0  0  0  0  0  0  0
  1  2  1  0
  2  3  2  0
  3  4  1  0
  3  5  1  0
  5  6  1  0
  5  7  2  0
  7  8  1  0
  8  9  1  0
  9 10  2  0
 10 11  1  0
 10 12  1  0
 12 13  1  0
 12 14  2  0
 14 15  1  0
 14 16  1  0
 16 17  1  0
 17 18  2  0
 17 19  1  0
 19 20  2  0
 20 21  1  0
 20 22  1  0
 22 23  1  0
 22 24  2  0
 24 25  1  0
 24 26  1  0
 26 27  1  0
 26 28  2  0
 28 29  1  0
 16 30  2  0
 30 31  1  0
  8 32  1  0
 32 33  2  0
 32 34  1  0
 34 35  1  0
 35 36  1  0
 35 37  1  0
 35 38  1  0
 34 39  1  0
 39 40  1  0
 40 41  1  0
 40 42  1  0
 39 43  2  0
 43 44  1  0
  7 45  1  0
 45 46  1  0
 45 47  2  0
 47 48  1  0
 47  2  1  0
 43  8  1  0
 30  9  1  0
 28 19  1  0
M  CHG  1  43   1
M  END
>  <score>  (23) 
6.27813

$$$$

     RDKit          3D

 57 61  0  0  0  0  0  0  0  0999 V2000
   16.0968   -8.3790   -1.6972 H   0  0  0  0  0  0  0  0  0  0  0  0
   15.8715   -7.3328   -1.5132 C   0  0  0  0  0  0  0  0  0  0  0  0
   16.7830   -6.5289   -0.8198 C   0  0  0  0  0  0  0  0  0  0  0  0
   17.7242   -6.9435   -0.4701 H   0  0  0  0  0  0  0  0  0  0  0  0
   16.4790   -5.1871   -0.5629 C   0  0  0  0  0  0  0  0  0  0  0  0
   17.1898   -4.5688   -0.0220 H   0  0  0  0  0  0  0  0  0  0  0  0
   15.2569   -4.6353   -0.9799 C   0  0  0  0  0  0  0  0  0  0  0  0
   14.8928   -3.1927   -0.6453 C   0  0  0  0  0  0  0  0  0  0  0  0
   15.4195   -2.1757   -1.6466 C   0  0  0  0  0  0  0  0  0  0  0  0
   15.9174   -2.5887   -2.8931 C   0  0  0  0  0  0  0  0  0  0  0  0
   15.9499   -3.6450   -3.1466 H   0  0  0  0  0  0  0  0  0  0  0  0
   16.3805   -1.6583   -3.8213 C   0  0  0  0  0  0  0  0  0  0  0  0
   16.7695   -1.9796   -4.7838 H   0  0  0  0  0  0  0  0  0  0  0  0
   16.3385   -0.3011   -3.5026 C   0  0  0  0  0  0  0  0  0  0  0  0
   16.7013    0.4342   -4.2090 H   0  0  0  0  0  0  0  0  0  0  0  0
   15.8233    0.1582   -2.2850 C   0  0  0  0  0  0  0  0  0  0  0  0
   15.7936    1.5490   -2.0656 N   0  0  0  0  0  0  0  0  0  0  0  0
   16.0308    2.4445   -3.2010 C   0  0  0  0  0  0  0  0  0  0  0  0
   17.0060    2.2697   -3.6675 H   0  0  0  0  0  0  0  0  0  0  0  0
   15.2554    2.2830   -3.9588 H   0  0  0  0  0  0  0  0  0  0  0  0
   15.9584    3.8431   -2.6031 C   0  0  0  0  0  0  0  0  0  0  0  0
   15.5364    4.5551   -3.3173 H   0  0  0  0  0  0  0  0  0  0  0  0
   16.9730    4.1729   -2.3490 H   0  0  0  0  0  0  0  0  0  0  0  0
   15.0924    3.7228   -1.3331 C   0  0  2  0  0  0  0  0  0  0  0  0
   14.0501    3.9862   -1.5485 H   0  0  0  0  0  0  0  0  0  0  0  0
   15.6157    4.5653   -0.1542 C   0  0  0  0  0  0  0  0  0  0  0  0
   16.5855    5.0026   -0.4023 H   0  0  0  0  0  0  0  0  0  0  0  0
   14.9386    5.3878    0.0923 H   0  0  0  0  0  0  0  0  0  0  0  0
   15.7829    3.6390    0.9737 N   0  0  0  0  0  0  0  0  0  0  0  0
   14.7788    3.7602    2.0552 C   0  0  0  0  0  0  0  0  0  0  0  0
   14.6905    4.8081    2.3859 H   0  0  0  0  0  0  0  0  0  0  0  0
   13.7976    3.4168    1.7158 H   0  0  0  0  0  0  0  0  0  0  0  0
   15.0719    3.1502    2.9111 H   0  0  0  0  0  0  0  0  0  0  0  0
   16.0897    2.3314    0.3395 C   0  0  0  0  0  0  0  0  0  0  0  0
   15.9277    1.4626    0.9760 H   0  0  0  0  0  0  0  0  0  0  0  0
   17.1412    2.3255    0.0287 H   0  0  0  0  0  0  0  0  0  0  0  0
   15.2006    2.2557   -0.9036 C   0  0  2  0  0  0  0  0  0  0  0  0
   14.2103    1.8632   -0.6524 H   0  0  0  0  0  0  0  0  0  0  0  0
   15.3571   -0.7895   -1.3655 C   0  0  0  0  0  0  0  0  0  0  0  0
   14.9450   -0.4404   -0.4267 H   0  0  0  0  0  0  0  0  0  0  0  0
   13.3768   -2.9983   -0.4853 C   0  0  0  0  0  0  0  0  0  0  0  0
   12.5074   -3.1969   -1.3301 O   0  0  0  0  0  0  0  0  0  0  0  0
   13.1026   -2.5819    0.8019 N   0  0  0  0  0  0  0  0  0  0  0  0
   11.7809   -2.2696    1.3423 C   0  0  0  0  0  0  0  0  0  0  0  0
   11.7194   -1.2119    1.6208 H   0  0  0  0  0  0  0  0  0  0  0  0
   11.5707   -2.8799    2.2277 H   0  0  0  0  0  0  0  0  0  0  0  0
   11.0001   -2.4712    0.5991 H   0  0  0  0  0  0  0  0  0  0  0  0
   14.3028   -2.5256    1.4745 C   0  0  0  0  0  0  0  0  0  0  0  0
   14.4812   -2.1702    2.7761 N   0  0  0  0  0  0  0  0  0  0  0  0
   13.6667   -2.0798    3.3808 H   0  0  0  0  0  0  0  0  0  0  0  0
   15.4111   -2.2641    3.1808 H   0  0  0  0  0  0  0  0  0  0  0  0
   15.3055   -2.8643    0.7339 N   0  0  0  0  0  4  0  0  0  0  0  0
   16.2661   -2.9369    1.0715 H   0  0  0  0  0  0  0  0  0  0  0  0
   14.3687   -5.4434   -1.7114 C   0  0  0  0  0  0  0  0  0  0  0  0
   13.4323   -5.0293   -2.0727 H   0  0  0  0  0  0  0  0  0  0  0  0
   14.6691   -6.7849   -1.9713 C   0  0  0  0  0  0  0  0  0  0  0  0
   13.9620   -7.3996   -2.5206 H   0  0  0  0  0  0  0  0  0  0  0  0
  1  2  1  0
  2  3  2  0
  3  4  1  0
  3  5  1  0
  5  6  1  0
  5  7  2  0
  7  8  1  0
  8  9  1  0
  9 10  2  0
 10 11  1  0
 10 12  1  0
 12 13  1  0
 12 14  2  0
 14 15  1  0
 14 16  1  0
 16 17  1  0
 17 18  1  0
 18 19  1  0
 18 20  1  0
 18 21  1  0
 21 22  1  0
 21 23  1  0
 21 24  1  0
 24 25  1  6
 24 26  1  0
 26 27  1  0
 26 28  1  0
 26 29  1  0
 29 30  1  0
 30 31  1  0
 30 32  1  0
 30 33  1  0
 29 34  1  0
 34 35  1  0
 34 36  1  0
 34 37  1  0
 37 38  1  1
 16 39  2  0
 39 40  1  0
  8 41  1  0
 41 42  2  0
 41 43  1  0
 43 44  1  0
 44 45  1  0
 44 46  1  0
 44 47  1  0
 43 48  1  0
 48 49  1  0
 49 50  1  0
 49 51  1  0
 48 52  2  0
 52 53  1  0
  7 54  1  0
 54 55  1  0
 54 56  2  0
 56 57  1  0
 56  2  1  0
 52  8  1  0
 39  9  1  0
 37 17  1  0
 37 24  1  0
M  CHG  1  52   1
M  END
>  <score>  (24) 
6.27689

$$$$

     RDKit          3D

 44 47  0  0  0  0  0  0  0  0999 V2000
   16.1313   -8.4937   -1.6103 H   0  0  0  0  0  0  0  0  0  0  0  0
   15.8561   -7.4521   -1.4659 C   0  0  0  0  0  0  0  0  0  0  0  0
   16.7246   -6.5921   -0.7930 C   0  0  0  0  0  0  0  0  0  0  0  0
   17.6800   -6.9541   -0.4231 H   0  0  0  0  0  0  0  0  0  0  0  0
   16.3753   -5.2512   -0.6023 C   0  0  0  0  0  0  0  0  0  0  0  0
   17.0742   -4.6074   -0.0787 H   0  0  0  0  0  0  0  0  0  0  0  0
   15.1532   -4.7276   -1.0685 C   0  0  0  0  0  0  0  0  0  0  0  0
   14.7985   -3.2513   -0.7882 C   0  0  0  0  0  0  0  0  0  0  0  0
   15.3868   -2.2455   -1.7887 C   0  0  0  0  0  0  0  0  0  0  0  0
   15.9472   -2.6454   -3.0169 C   0  0  0  0  0  0  0  0  0  0  0  0
   16.0122   -3.6977   -3.2824 H   0  0  0  0  0  0  0  0  0  0  0  0
   16.4268   -1.6914   -3.9234 C   0  0  0  0  0  0  0  0  0  0  0  0
   16.8623   -2.0080   -4.8650 H   0  0  0  0  0  0  0  0  0  0  0  0
   16.3442   -0.3288   -3.6315 C   0  0  0  0  0  0  0  0  0  0  0  0
   16.7054    0.3945   -4.3582 H   0  0  0  0  0  0  0  0  0  0  0  0
   15.7988    0.1067   -2.4178 C   0  0  0  0  0  0  0  0  0  0  0  0
   15.7183    1.5461   -2.1064 C   0  0  0  0  0  0  0  0  0  0  0  0
   16.1191    2.5238   -2.8907 N   0  0  0  0  0  0  0  0  0  0  0  0
   15.8637    3.6957   -2.2331 N   0  0  0  0  0  0  0  0  0  0  0  0
   15.3252    3.3614   -1.0885 C   0  0  0  0  0  0  0  0  0  0  0  0
   14.8621    4.3214   -0.0505 C   0  0  0  0  0  0  0  0  0  0  0  0
   14.8211    3.8321    0.9252 H   0  0  0  0  0  0  0  0  0  0  0  0
   13.8652    4.6789   -0.3099 H   0  0  0  0  0  0  0  0  0  0  0  0
   15.5479    5.1661   -0.0021 H   0  0  0  0  0  0  0  0  0  0  0  0
   15.1999    2.0242   -0.9456 O   0  0  0  0  0  0  0  0  0  0  0  0
   15.3255   -0.8614   -1.5072 C   0  0  0  0  0  0  0  0  0  0  0  0
   14.8982   -0.5347   -0.5604 H   0  0  0  0  0  0  0  0  0  0  0  0
   13.2806   -3.0134   -0.6183 C   0  0  0  0  0  0  0  0  0  0  0  0
   12.4149   -3.0712   -1.4875 O   0  0  0  0  0  0  0  0  0  0  0  0
   13.0172   -2.6627    0.6961 N   0  0  0  0  0  0  0  0  0  0  0  0
   11.7153   -2.3114    1.2632 C   0  0  0  0  0  0  0  0  0  0  0  0
   11.6929   -1.2561    1.5588 H   0  0  0  0  0  0  0  0  0  0  0  0
   11.4995   -2.9247    2.1457 H   0  0  0  0  0  0  0  0  0  0  0  0
   10.9179   -2.4786    0.5330 H   0  0  0  0  0  0  0  0  0  0  0  0
   14.2200   -2.6320    1.3681 C   0  0  0  0  0  0  0  0  0  0  0  0
   14.3866   -2.3463    2.6941 N   0  0  0  0  0  0  0  0  0  0  0  0
   13.5769   -2.1261    3.2745 H   0  0  0  0  0  0  0  0  0  0  0  0
   15.3204   -2.3622    3.1016 H   0  0  0  0  0  0  0  0  0  0  0  0
   15.2203   -2.9090    0.5899 N   0  0  0  0  0  4  0  0  0  0  0  0
   16.1957   -2.8807    0.8901 H   0  0  0  0  0  0  0  0  0  0  0  0
   14.2953   -5.6087   -1.7706 C   0  0  0  0  0  0  0  0  0  0  0  0
   13.3514   -5.2626   -2.1831 H   0  0  0  0  0  0  0  0  0  0  0  0
   14.6428   -6.9598   -1.9582 C   0  0  0  0  0  0  0  0  0  0  0  0
   13.9730   -7.6308   -2.4900 H   0  0  0  0  0  0  0  0  0  0  0  0
  1  2  1  0
  2  3  2  0
  3  4  1  0
  3  5  1  0
  5  6  1  0
  5  7  2  0
  7  8  1  0
  8  9  1  0
  9 10  2  0
 10 11  1  0
 10 12  1  0
 12 13  1  0
 12 14  2  0
 14 15  1  0
 14 16  1  0
 16 17  1  0
 17 18  2  0
 18 19  1  0
 19 20  2  0
 20 21  1  0
 21 22  1  0
 21 23  1  0
 21 24  1  0
 20 25  1  0
 16 26  2  0
 26 27  1  0
  8 28  1  0
 28 29  2  0
 28 30  1  0
 30 31  1  0
 31 32  1  0
 31 33  1  0
 31 34  1  0
 30 35  1  0
 35 36  1  0
 36 37  1  0
 36 38  1  0
 35 39  2  0
 39 40  1  0
  7 41  1  0
 41 42  1  0
 41 43  2  0
 43 44  1  0
 43  2  1  0
 39  8  1  0
 26  9  1  0
 25 17  1  0
M  CHG  1  39   1
M  END
>  <score>  (25) 
6.27594

$$$$

     RDKit          3D

 47 50  0  0  0  0  0  0  0  0999 V2000
   16.1139   -8.4781   -1.6128 H   0  0  0  0  0  0  0  0  0  0  0  0
   15.8577   -7.4306   -1.4761 C   0  0  0  0  0  0  0  0  0  0  0  0
   16.7347   -6.5764   -0.8031 C   0  0  0  0  0  0  0  0  0  0  0  0
   17.6737   -6.9578   -0.4143 H   0  0  0  0  0  0  0  0  0  0  0  0
   16.3947   -5.2335   -0.6063 C   0  0  0  0  0  0  0  0  0  0  0  0
   17.0732   -4.5830   -0.0621 H   0  0  0  0  0  0  0  0  0  0  0  0
   15.1774   -4.7124   -1.0744 C   0  0  0  0  0  0  0  0  0  0  0  0
   14.8152   -3.2513   -0.7807 C   0  0  0  0  0  0  0  0  0  0  0  0
   15.3822   -2.2467   -1.7823 C   0  0  0  0  0  0  0  0  0  0  0  0
   15.9423   -2.6444   -3.0077 C   0  0  0  0  0  0  0  0  0  0  0  0
   15.9976   -3.7003   -3.2514 H   0  0  0  0  0  0  0  0  0  0  0  0
   16.4254   -1.6947   -3.9182 C   0  0  0  0  0  0  0  0  0  0  0  0
   16.8511   -2.0065   -4.8652 H   0  0  0  0  0  0  0  0  0  0  0  0
   16.3526   -0.3336   -3.6179 C   0  0  0  0  0  0  0  0  0  0  0  0
   16.7155    0.4055   -4.3275 H   0  0  0  0  0  0  0  0  0  0  0  0
   15.7919    0.0878   -2.4083 C   0  0  0  0  0  0  0  0  0  0  0  0
   15.7032    1.5142   -2.0980 C   0  0  0  0  0  0  0  0  0  0  0  0
   16.7470    2.3851   -2.4586 C   0  0  0  0  0  0  0  0  0  0  0  0
   17.6405    1.9870   -2.9347 H   0  0  0  0  0  0  0  0  0  0  0  0
   16.6586    3.7528   -2.1666 C   0  0  0  0  0  0  0  0  0  0  0  0
   17.4838    4.4136   -2.4099 H   0  0  0  0  0  0  0  0  0  0  0  0
   15.5261    4.2480   -1.5100 C   0  0  0  0  0  0  0  0  0  0  0  0
   15.4370    5.5867   -1.0297 C   0  0  0  0  0  0  0  0  0  0  0  0
   15.3079    6.6031   -0.4875 N   0  0  0  0  0  0  0  0  0  0  0  0
   14.4865    3.3898   -1.1641 C   0  0  0  0  0  0  0  0  0  0  0  0
   13.6261    3.7918   -0.6384 H   0  0  0  0  0  0  0  0  0  0  0  0
   14.5721    2.0262   -1.4416 C   0  0  0  0  0  0  0  0  0  0  0  0
   13.7540    1.3723   -1.1467 H   0  0  0  0  0  0  0  0  0  0  0  0
   15.3099   -0.8696   -1.5050 C   0  0  0  0  0  0  0  0  0  0  0  0
   14.8841   -0.5314   -0.5646 H   0  0  0  0  0  0  0  0  0  0  0  0
   13.2984   -3.0332   -0.5998 C   0  0  0  0  0  0  0  0  0  0  0  0
   12.4331   -3.0997   -1.4729 O   0  0  0  0  0  0  0  0  0  0  0  0
   13.0226   -2.6769    0.7064 N   0  0  0  0  0  0  0  0  0  0  0  0
   11.7181   -2.3128    1.2687 C   0  0  0  0  0  0  0  0  0  0  0  0
   11.5035   -2.9217    2.1567 H   0  0  0  0  0  0  0  0  0  0  0  0
   10.9137   -2.4779    0.5381 H   0  0  0  0  0  0  0  0  0  0  0  0
   11.7026   -1.2534    1.5585 H   0  0  0  0  0  0  0  0  0  0  0  0
   14.2327   -2.6271    1.3656 C   0  0  0  0  0  0  0  0  0  0  0  0
   14.3992   -2.3218    2.6844 N   0  0  0  0  0  0  0  0  0  0  0  0
   13.5861   -2.1251    3.2647 H   0  0  0  0  0  0  0  0  0  0  0  0
   15.3372   -2.3469    3.0873 H   0  0  0  0  0  0  0  0  0  0  0  0
   15.2312   -2.9084    0.5985 N   0  0  0  0  0  4  0  0  0  0  0  0
   16.2030   -2.9283    0.9199 H   0  0  0  0  0  0  0  0  0  0  0  0
   14.3085   -5.5811   -1.7691 C   0  0  0  0  0  0  0  0  0  0  0  0
   13.3571   -5.2160   -2.1441 H   0  0  0  0  0  0  0  0  0  0  0  0
   14.6459   -6.9314   -1.9636 C   0  0  0  0  0  0  0  0  0  0  0  0
   13.9672   -7.5985   -2.4877 H   0  0  0  0  0  0  0  0  0  0  0  0
  1  2  1  0
  2  3  2  0
  3  4  1  0
  3  5  1  0
  5  6  1  0
  5  7  2  0
  7  8  1  0
  8  9  1  0
  9 10  2  0
 10 11  1  0
 10 12  1  0
 12 13  1  0
 12 14  2  0
 14 15  1  0
 14 16  1  0
 16 17  1  0
 17 18  2  0
 18 19  1  0
 18 20  1  0
 20 21  1  0
 20 22  2  0
 22 23  1  0
 23 24  3  0
 22 25  1  0
 25 26  1  0
 25 27  2  0
 27 28  1  0
 16 29  2  0
 29 30  1  0
  8 31  1  0
 31 32  2  0
 31 33  1  0
 33 34  1  0
 34 35  1  0
 34 36  1  0
 34 37  1  0
 33 38  1  0
 38 39  1  0
 39 40  1  0
 39 41  1  0
 38 42  2  0
 42 43  1  0
  7 44  1  0
 44 45  1  0
 44 46  2  0
 46 47  1  0
 46  2  1  0
 42  8  1  0
 29  9  1  0
 27 17  1  0
M  CHG  1  42   1
M  END
>  <score>  (26) 
6.27428

$$$$

     RDKit          3D

 53 56  0  0  0  0  0  0  0  0999 V2000
   16.1100   -8.3220   -1.8278 H   0  0  0  0  0  0  0  0  0  0  0  0
   15.8925   -7.2852   -1.5943 C   0  0  0  0  0  0  0  0  0  0  0  0
   16.8191   -6.5112   -0.8854 C   0  0  0  0  0  0  0  0  0  0  0  0
   17.7569   -6.9504   -0.5566 H   0  0  0  0  0  0  0  0  0  0  0  0
   16.5324   -5.1724   -0.5955 C   0  0  0  0  0  0  0  0  0  0  0  0
   17.2513   -4.5757   -0.0377 H   0  0  0  0  0  0  0  0  0  0  0  0
   15.3128   -4.6045   -1.0059 C   0  0  0  0  0  0  0  0  0  0  0  0
   14.9481   -3.1743   -0.6665 C   0  0  0  0  0  0  0  0  0  0  0  0
   15.4141   -2.1576   -1.7081 C   0  0  0  0  0  0  0  0  0  0  0  0
   15.8600   -2.4841   -3.0039 C   0  0  0  0  0  0  0  0  0  0  0  0
   15.9410   -3.5271   -3.2950 H   0  0  0  0  0  0  0  0  0  0  0  0
   16.2075   -1.4712   -3.9205 C   0  0  0  0  0  0  0  0  0  0  0  0
   16.5525   -1.7328   -4.9179 H   0  0  0  0  0  0  0  0  0  0  0  0
   16.1463   -0.1202   -3.5428 C   0  0  0  0  0  0  0  0  0  0  0  0
   16.4342    0.6668   -4.2341 H   0  0  0  0  0  0  0  0  0  0  0  0
   15.7661    0.2110   -2.2397 C   0  0  0  0  0  0  0  0  0  0  0  0
   15.8616    1.5625   -1.6864 C   0  0  0  0  0  0  0  0  0  0  0  0
   15.7524    2.7443   -2.4369 C   0  0  0  0  0  0  0  0  0  0  0  0
   15.6183    2.6918   -3.5138 H   0  0  0  0  0  0  0  0  0  0  0  0
   15.7460    3.9861   -1.7730 C   0  0  0  0  0  0  0  0  0  0  0  0
   15.6002    4.9068   -2.3259 H   0  0  0  0  0  0  0  0  0  0  0  0
   15.8680    4.0455   -0.3789 C   0  0  0  0  0  0  0  0  0  0  0  0
   15.8238    5.2728    0.2775 N   0  0  0  0  0  0  0  0  0  0  0  0
   15.9189    6.1108   -0.2752 H   0  0  0  0  0  0  0  0  0  0  0  0
   15.7653    5.4206    1.6520 C   0  0  0  0  0  0  0  0  0  0  0  0
   15.5181    4.4757    2.3743 O   0  0  0  0  0  0  0  0  0  0  0  0
   16.2030    6.7190    2.3085 C   0  0  0  0  0  0  0  0  0  0  0  0
   17.1594    6.5982    2.8330 H   0  0  0  0  0  0  0  0  0  0  0  0
   15.4433    7.0336    3.0229 H   0  0  0  0  0  0  0  0  0  0  0  0
   16.3134    7.4934    1.5510 H   0  0  0  0  0  0  0  0  0  0  0  0
   16.0484    2.8710    0.3460 C   0  0  0  0  0  0  0  0  0  0  0  0
   16.1633    2.8921    1.4219 H   0  0  0  0  0  0  0  0  0  0  0  0
   16.0529    1.6490   -0.3027 C   0  0  0  0  0  0  0  0  0  0  0  0
   16.1698    0.7398    0.2788 H   0  0  0  0  0  0  0  0  0  0  0  0
   15.3494   -0.8071   -1.3730 C   0  0  0  0  0  0  0  0  0  0  0  0
   14.9810   -0.5256   -0.3909 H   0  0  0  0  0  0  0  0  0  0  0  0
   13.4334   -3.0141   -0.4328 C   0  0  0  0  0  0  0  0  0  0  0  0
   12.5482   -3.1584   -1.2730 O   0  0  0  0  0  0  0  0  0  0  0  0
   13.1916   -2.6961    0.8882 N   0  0  0  0  0  0  0  0  0  0  0  0
   11.9101   -2.3155    1.4836 C   0  0  0  0  0  0  0  0  0  0  0  0
   11.0786   -2.8120    0.9739 H   0  0  0  0  0  0  0  0  0  0  0  0
   11.7597   -1.2322    1.4252 H   0  0  0  0  0  0  0  0  0  0  0  0
   11.8641   -2.6031    2.5384 H   0  0  0  0  0  0  0  0  0  0  0  0
   14.4130   -2.6184    1.5158 C   0  0  0  0  0  0  0  0  0  0  0  0
   14.5727   -2.3468    2.8384 N   0  0  0  0  0  0  0  0  0  0  0  0
   15.5068   -2.1040    3.1574 H   0  0  0  0  0  0  0  0  0  0  0  0
   13.7663   -2.0130    3.3618 H   0  0  0  0  0  0  0  0  0  0  0  0
   15.3959   -2.8517    0.7062 N   0  0  0  0  0  4  0  0  0  0  0  0
   16.3734   -2.8602    0.9981 H   0  0  0  0  0  0  0  0  0  0  0  0
   14.4027   -5.3874   -1.7321 C   0  0  0  0  0  0  0  0  0  0  0  0
   13.4617   -4.9562   -2.0624 H   0  0  0  0  0  0  0  0  0  0  0  0
   14.6866   -6.7217   -2.0201 C   0  0  0  0  0  0  0  0  0  0  0  0
   13.9651   -7.3165   -2.5705 H   0  0  0  0  0  0  0  0  0  0  0  0
  1  2  1  0
  2  3  2  0
  3  4  1  0
  3  5  1  0
  5  6  1  0
  5  7  2  0
  7  8  1  0
  8  9  1  0
  9 10  2  0
 10 11  1  0
 10 12  1  0
 12 13  1  0
 12 14  2  0
 14 15  1  0
 14 16  1  0
 16 17  1  0
 17 18  2  0
 18 19  1  0
 18 20  1  0
 20 21  1  0
 20 22  2  0
 22 23  1  0
 23 24  1  0
 23 25  1  0
 25 26  2  0
 25 27  1  0
 27 28  1  0
 27 29  1  0
 27 30  1  0
 22 31  1  0
 31 32  1  0
 31 33  2  0
 33 34  1  0
 16 35  2  0
 35 36  1  0
  8 37  1  0
 37 38  2  0
 37 39  1  0
 39 40  1  0
 40 41  1  0
 40 42  1  0
 40 43  1  0
 39 44  1  0
 44 45  1  0
 45 46  1  0
 45 47  1  0
 44 48  2  0
 48 49  1  0
  7 50  1  0
 50 51  1  0
 50 52  2  0
 52 53  1  0
 52  2  1  0
 48  8  1  0
 35  9  1  0
 33 17  1  0
M  CHG  1  48   1
M  END
>  <score>  (27) 
6.27254

$$$$

     RDKit          3D

 54 57  0  0  0  0  0  0  0  0999 V2000
   16.1188   -8.3860   -1.6591 H   0  0  0  0  0  0  0  0  0  0  0  0
   15.8749   -7.3413   -1.4836 C   0  0  0  0  0  0  0  0  0  0  0  0
   16.7638   -6.5176   -0.7844 C   0  0  0  0  0  0  0  0  0  0  0  0
   17.7042   -6.9145   -0.4191 H   0  0  0  0  0  0  0  0  0  0  0  0
   16.4364   -5.1802   -0.5304 C   0  0  0  0  0  0  0  0  0  0  0  0
   17.1330   -4.5478    0.0145 H   0  0  0  0  0  0  0  0  0  0  0  0
   15.2134   -4.6498   -0.9682 C   0  0  0  0  0  0  0  0  0  0  0  0
   14.8286   -3.2052   -0.6758 C   0  0  0  0  0  0  0  0  0  0  0  0
   15.4023   -2.2123   -1.6862 C   0  0  0  0  0  0  0  0  0  0  0  0
   15.9442   -2.6386   -2.9130 C   0  0  0  0  0  0  0  0  0  0  0  0
   16.0051   -3.6986   -3.1401 H   0  0  0  0  0  0  0  0  0  0  0  0
   16.4062   -1.7124   -3.8552 C   0  0  0  0  0  0  0  0  0  0  0  0
   16.8123   -2.0505   -4.8030 H   0  0  0  0  0  0  0  0  0  0  0  0
   16.3284   -0.3443   -3.5893 C   0  0  0  0  0  0  0  0  0  0  0  0
   16.6774    0.3649   -4.3354 H   0  0  0  0  0  0  0  0  0  0  0  0
   15.7807    0.1118   -2.3824 C   0  0  0  0  0  0  0  0  0  0  0  0
   15.6903    1.5923   -2.0920 C   0  0  0  0  0  0  0  0  0  0  0  0
   15.5376    1.7474   -1.0182 H   0  0  0  0  0  0  0  0  0  0  0  0
   16.6450    2.0575   -2.3617 H   0  0  0  0  0  0  0  0  0  0  0  0
   14.5942    2.2366   -2.8516 N   0  0  0  0  0  0  0  0  0  0  0  0
   14.7010    3.7049   -2.9617 C   0  0  0  0  0  0  0  0  0  0  0  0
   14.0479    4.0637   -3.7646 H   0  0  0  0  0  0  0  0  0  0  0  0
   15.7276    3.9902   -3.2138 H   0  0  0  0  0  0  0  0  0  0  0  0
   14.2961    4.3621   -1.6389 C   0  0  0  0  0  0  0  0  0  0  0  0
   15.0057    4.0626   -0.8606 H   0  0  0  0  0  0  0  0  0  0  0  0
   14.3403    5.4512   -1.7398 H   0  0  0  0  0  0  0  0  0  0  0  0
   12.8805    3.9334   -1.2295 C   0  0  0  0  0  0  0  0  0  0  0  0
   12.6399    4.3464   -0.2444 H   0  0  0  0  0  0  0  0  0  0  0  0
   12.1543    4.3280   -1.9490 H   0  0  0  0  0  0  0  0  0  0  0  0
   12.7864    2.4018   -1.1862 C   0  0  0  0  0  0  0  0  0  0  0  0
   13.4369    2.0290   -0.3911 H   0  0  0  0  0  0  0  0  0  0  0  0
   11.7595    2.0993   -0.9581 H   0  0  0  0  0  0  0  0  0  0  0  0
   13.2283    1.7817   -2.5175 C   0  0  0  0  0  0  0  0  0  0  0  0
   12.5334    2.0847   -3.3085 H   0  0  0  0  0  0  0  0  0  0  0  0
   13.1965    0.6883   -2.4476 H   0  0  0  0  0  0  0  0  0  0  0  0
   15.3269   -0.8279   -1.4404 C   0  0  0  0  0  0  0  0  0  0  0  0
   14.9044   -0.4726   -0.5043 H   0  0  0  0  0  0  0  0  0  0  0  0
   13.3016   -3.0372   -0.5544 C   0  0  0  0  0  0  0  0  0  0  0  0
   12.4901   -3.1352   -1.4712 O   0  0  0  0  0  0  0  0  0  0  0  0
   12.9434   -2.7561    0.7539 N   0  0  0  0  0  0  0  0  0  0  0  0
   11.6176   -2.3440    1.2379 C   0  0  0  0  0  0  0  0  0  0  0  0
   10.8515   -2.4520    0.4590 H   0  0  0  0  0  0  0  0  0  0  0  0
   11.2943   -2.9472    2.0985 H   0  0  0  0  0  0  0  0  0  0  0  0
   11.6330   -1.2870    1.5346 H   0  0  0  0  0  0  0  0  0  0  0  0
   14.1336   -2.6562    1.4504 C   0  0  0  0  0  0  0  0  0  0  0  0
   14.2522   -2.4488    2.7924 N   0  0  0  0  0  0  0  0  0  0  0  0
   13.4059   -2.2421    3.3238 H   0  0  0  0  0  0  0  0  0  0  0  0
   15.1606   -2.1706    3.1613 H   0  0  0  0  0  0  0  0  0  0  0  0
   15.1767   -2.8555    0.7178 N   0  0  0  0  0  4  0  0  0  0  0  0
   16.0975   -3.0347    1.1222 H   0  0  0  0  0  0  0  0  0  0  0  0
   14.3427   -5.4780   -1.6973 C   0  0  0  0  0  0  0  0  0  0  0  0
   13.4004   -5.0834   -2.0635 H   0  0  0  0  0  0  0  0  0  0  0  0
   14.6666   -6.8153   -1.9458 C   0  0  0  0  0  0  0  0  0  0  0  0
   13.9705   -7.4433   -2.4914 H   0  0  0  0  0  0  0  0  0  0  0  0
  1  2  1  0
  2  3  2  0
  3  4  1  0
  3  5  1  0
  5  6  1  0
  5  7  2  0
  7  8  1  0
  8  9  1  0
  9 10  2  0
 10 11  1  0
 10 12  1  0
 12 13  1  0
 12 14  2  0
 14 15  1  0
 14 16  1  0
 16 17  1  0
 17 18  1  0
 17 19  1  0
 17 20  1  0
 20 21  1  0
 21 22  1  0
 21 23  1  0
 21 24  1  0
 24 25  1  0
 24 26  1  0
 24 27  1  0
 27 28  1  0
 27 29  1  0
 27 30  1  0
 30 31  1  0
 30 32  1  0
 30 33  1  0
 33 34  1  0
 33 35  1  0
 16 36  2  0
 36 37  1  0
  8 38  1  0
 38 39  2  0
 38 40  1  0
 40 41  1  0
 41 42  1  0
 41 43  1  0
 41 44  1  0
 40 45  1  0
 45 46  1  0
 46 47  1  0
 46 48  1  0
 45 49  2  0
 49 50  1  0
  7 51  1  0
 51 52  1  0
 51 53  2  0
 53 54  1  0
 53  2  1  0
 49  8  1  0
 36  9  1  0
 33 20  1  0
M  CHG  1  49   1
M  END
>  <score>  (28) 
6.26841

$$$$

     RDKit          3D

 53 56  0  0  0  0  0  0  0  0999 V2000
   16.1101   -8.4752   -1.6133 H   0  0  0  0  0  0  0  0  0  0  0  0
   15.8571   -7.4264   -1.4784 C   0  0  0  0  0  0  0  0  0  0  0  0
   16.7360   -6.5733   -0.8067 C   0  0  0  0  0  0  0  0  0  0  0  0
   17.6710   -6.9594   -0.4127 H   0  0  0  0  0  0  0  0  0  0  0  0
   16.3989   -5.2298   -0.6086 C   0  0  0  0  0  0  0  0  0  0  0  0
   17.0705   -4.5764   -0.0579 H   0  0  0  0  0  0  0  0  0  0  0  0
   15.1828   -4.7099   -1.0769 C   0  0  0  0  0  0  0  0  0  0  0  0
   14.8226   -3.2519   -0.7784 C   0  0  0  0  0  0  0  0  0  0  0  0
   15.3945   -2.2460   -1.7759 C   0  0  0  0  0  0  0  0  0  0  0  0
   15.9484   -2.6442   -3.0021 C   0  0  0  0  0  0  0  0  0  0  0  0
   15.9985   -3.7010   -3.2431 H   0  0  0  0  0  0  0  0  0  0  0  0
   16.4242   -1.6942   -3.9168 C   0  0  0  0  0  0  0  0  0  0  0  0
   16.8504   -2.0062   -4.8646 H   0  0  0  0  0  0  0  0  0  0  0  0
   16.3388   -0.3305   -3.6227 C   0  0  0  0  0  0  0  0  0  0  0  0
   16.7016    0.4067   -4.3341 H   0  0  0  0  0  0  0  0  0  0  0  0
   15.7767    0.0918   -2.4146 C   0  0  0  0  0  0  0  0  0  0  0  0
   15.6317    1.5620   -2.1158 C   0  0  0  0  0  0  0  0  0  0  0  0
   15.8180    1.7363   -1.0501 H   0  0  0  0  0  0  0  0  0  0  0  0
   16.3849    2.1281   -2.6704 H   0  0  0  0  0  0  0  0  0  0  0  0
   14.2427    2.0304   -2.4974 C   0  0  0  0  0  0  0  0  0  0  0  0
   13.9506    2.4688   -3.7952 C   0  0  0  0  0  0  0  0  0  0  0  0
   14.7587    2.4756   -4.5172 H   0  0  0  0  0  0  0  0  0  0  0  0
   12.6463    2.8695   -4.1453 C   0  0  0  0  0  0  0  0  0  0  0  0
   12.4257    3.2000   -5.1547 H   0  0  0  0  0  0  0  0  0  0  0  0
   11.6151    2.8264   -3.1922 C   0  0  0  0  0  0  0  0  0  0  0  0
   10.3050    3.1727   -3.4297 O   0  0  0  0  0  0  0  0  0  0  0  0
    9.9480    3.6223   -4.7435 C   0  0  0  0  0  0  0  0  0  0  0  0
    8.8764    3.8603   -4.7551 H   0  0  0  0  0  0  0  0  0  0  0  0
   10.1404    2.8453   -5.4909 H   0  0  0  0  0  0  0  0  0  0  0  0
   10.5084    4.5233   -5.0143 H   0  0  0  0  0  0  0  0  0  0  0  0
   11.9204    2.3909   -1.9044 C   0  0  0  0  0  0  0  0  0  0  0  0
   11.1165    2.3549   -1.1818 H   0  0  0  0  0  0  0  0  0  0  0  0
   13.2155    2.0002   -1.5537 C   0  0  0  0  0  0  0  0  0  0  0  0
   13.4254    1.6627   -0.5462 H   0  0  0  0  0  0  0  0  0  0  0  0
   15.3193   -0.8679   -1.5004 C   0  0  0  0  0  0  0  0  0  0  0  0
   14.8797   -0.5335   -0.5660 H   0  0  0  0  0  0  0  0  0  0  0  0
   13.3038   -3.0365   -0.5969 C   0  0  0  0  0  0  0  0  0  0  0  0
   12.4384   -3.1112   -1.4656 O   0  0  0  0  0  0  0  0  0  0  0  0
   13.0237   -2.6811    0.7081 N   0  0  0  0  0  0  0  0  0  0  0  0
   11.7193   -2.3131    1.2683 C   0  0  0  0  0  0  0  0  0  0  0  0
   11.5062   -2.9171    2.1602 H   0  0  0  0  0  0  0  0  0  0  0  0
   10.9110   -2.4805    0.5404 H   0  0  0  0  0  0  0  0  0  0  0  0
   11.7026   -1.2524    1.5542 H   0  0  0  0  0  0  0  0  0  0  0  0
   14.2350   -2.6259    1.3659 C   0  0  0  0  0  0  0  0  0  0  0  0
   14.4008   -2.3154    2.6803 N   0  0  0  0  0  0  0  0  0  0  0  0
   15.3409   -2.3447    3.0840 H   0  0  0  0  0  0  0  0  0  0  0  0
   13.5872   -2.1252    3.2606 H   0  0  0  0  0  0  0  0  0  0  0  0
   15.2326   -2.9099    0.5992 N   0  0  0  0  0  4  0  0  0  0  0  0
   16.2025   -2.9353    0.9252 H   0  0  0  0  0  0  0  0  0  0  0  0
   14.3107   -5.5751   -1.7687 C   0  0  0  0  0  0  0  0  0  0  0  0
   13.3572   -5.2061   -2.1357 H   0  0  0  0  0  0  0  0  0  0  0  0
   14.6458   -6.9255   -1.9647 C   0  0  0  0  0  0  0  0  0  0  0  0
   13.9669   -7.5933   -2.4874 H   0  0  0  0  0  0  0  0  0  0  0  0
  1  2  1  0
  2  3  2  0
  3  4  1  0
  3  5  1  0
  5  6  1  0
  5  7  2  0
  7  8  1  0
  8  9  1  0
  9 10  2  0
 10 11  1  0
 10 12  1  0
 12 13  1  0
 12 14  2  0
 14 15  1  0
 14 16  1  0
 16 17  1  0
 17 18  1  0
 17 19  1  0
 17 20  1  0
 20 21  2  0
 21 22  1  0
 21 23  1  0
 23 24  1  0
 23 25  2  0
 25 26  1  0
 26 27  1  0
 27 28  1  0
 27 29  1  0
 27 30  1  0
 25 31  1  0
 31 32  1  0
 31 33  2  0
 33 34  1  0
 16 35  2  0
 35 36  1  0
  8 37  1  0
 37 38  2  0
 37 39  1  0
 39 40  1  0
 40 41  1  0
 40 42  1  0
 40 43  1  0
 39 44  1  0
 44 45  1  0
 45 46  1  0
 45 47  1  0
 44 48  2  0
 48 49  1  0
  7 50  1  0
 50 51  1  0
 50 52  2  0
 52 53  1  0
 52  2  1  0
 48  8  1  0
 35  9  1  0
 33 20  1  0
M  CHG  1  48   1
M  END
>  <score>  (29) 
6.25669

$$$$

     RDKit          3D

 50 53  0  0  0  0  0  0  0  0999 V2000
   16.1087   -8.4326   -1.7145 H   0  0  0  0  0  0  0  0  0  0  0  0
   15.8828   -7.3870   -1.5298 C   0  0  0  0  0  0  0  0  0  0  0  0
   16.7925   -6.5834   -0.8357 C   0  0  0  0  0  0  0  0  0  0  0  0
   17.7318   -6.9958   -0.4823 H   0  0  0  0  0  0  0  0  0  0  0  0
   16.4924   -5.2413   -0.5853 C   0  0  0  0  0  0  0  0  0  0  0  0
   17.1971   -4.6239   -0.0358 H   0  0  0  0  0  0  0  0  0  0  0  0
   15.2783   -4.6858   -1.0170 C   0  0  0  0  0  0  0  0  0  0  0  0
   14.9276   -3.2384   -0.6903 C   0  0  0  0  0  0  0  0  0  0  0  0
   15.3853   -2.2434   -1.7563 C   0  0  0  0  0  0  0  0  0  0  0  0
   16.0106   -2.6452   -2.9516 C   0  0  0  0  0  0  0  0  0  0  0  0
   16.1792   -3.7002   -3.1434 H   0  0  0  0  0  0  0  0  0  0  0  0
   16.4144   -1.7029   -3.9073 C   0  0  0  0  0  0  0  0  0  0  0  0
   16.9277   -2.0216   -4.8086 H   0  0  0  0  0  0  0  0  0  0  0  0
   16.1474   -0.3470   -3.7068 C   0  0  0  0  0  0  0  0  0  0  0  0
   16.4535    0.3901   -4.4433 H   0  0  0  0  0  0  0  0  0  0  0  0
   15.4906    0.0733   -2.5492 C   0  0  0  0  0  0  0  0  0  0  0  0
   15.1688    1.3965   -2.4073 O   0  0  0  0  0  0  0  0  0  0  0  0
   15.4803    1.9964   -1.2121 C   0  0  0  0  0  0  0  0  0  0  0  0
   16.4383    1.4901   -0.3300 C   0  0  0  0  0  0  0  0  0  0  0  0
   16.8795    0.5288   -0.5672 H   0  0  0  0  0  0  0  0  0  0  0  0
   16.8320    2.2185    0.8031 C   0  0  0  0  0  0  0  0  0  0  0  0
   17.6150    1.8400    1.4554 H   0  0  0  0  0  0  0  0  0  0  0  0
   16.2114    3.4337    1.1005 C   0  0  0  0  0  0  0  0  0  0  0  0
   16.4968    4.0007    1.9840 H   0  0  0  0  0  0  0  0  0  0  0  0
   15.1896    3.8989    0.2698 C   0  0  0  0  0  0  0  0  0  0  0  0
   14.4186    5.1279    0.6087 C   0  0  0  0  0  0  0  0  0  0  0  0
   13.4990    5.1301    0.0230 H   0  0  0  0  0  0  0  0  0  0  0  0
   14.1608    5.1421    1.6731 H   0  0  0  0  0  0  0  0  0  0  0  0
   14.9972    6.0184    0.3586 H   0  0  0  0  0  0  0  0  0  0  0  0
   14.8492    3.1929   -0.8869 C   0  0  0  0  0  0  0  0  0  0  0  0
   14.0856    3.5931   -1.5439 H   0  0  0  0  0  0  0  0  0  0  0  0
   15.1263   -0.8720   -1.5803 C   0  0  0  0  0  0  0  0  0  0  0  0
   14.6177   -0.5174   -0.6889 H   0  0  0  0  0  0  0  0  0  0  0  0
   13.4180   -3.0737   -0.4507 C   0  0  0  0  0  0  0  0  0  0  0  0
   12.5144   -3.3052   -1.2484 O   0  0  0  0  0  0  0  0  0  0  0  0
   13.1947   -2.6405    0.8378 N   0  0  0  0  0  0  0  0  0  0  0  0
   11.9165   -2.2546    1.4267 C   0  0  0  0  0  0  0  0  0  0  0  0
   11.9116   -2.5133    2.4924 H   0  0  0  0  0  0  0  0  0  0  0  0
   11.7665   -1.1726    1.3207 H   0  0  0  0  0  0  0  0  0  0  0  0
   11.0817   -2.7789    0.9450 H   0  0  0  0  0  0  0  0  0  0  0  0
   14.4177   -2.5160    1.4499 C   0  0  0  0  0  0  0  0  0  0  0  0
   14.5383   -2.0792    2.7365 N   0  0  0  0  0  0  0  0  0  0  0  0
   13.7113   -2.1546    3.3235 H   0  0  0  0  0  0  0  0  0  0  0  0
   15.4500   -2.1759    3.1765 H   0  0  0  0  0  0  0  0  0  0  0  0
   15.3952   -2.8574    0.6650 N   0  0  0  0  0  4  0  0  0  0  0  0
   16.3834   -2.7791    0.9129 H   0  0  0  0  0  0  0  0  0  0  0  0
   14.3781   -5.4981   -1.7331 C   0  0  0  0  0  0  0  0  0  0  0  0
   13.4348   -5.0862   -2.0847 H   0  0  0  0  0  0  0  0  0  0  0  0
   14.6770   -6.8426   -1.9829 C   0  0  0  0  0  0  0  0  0  0  0  0
   13.9687   -7.4605   -2.5259 H   0  0  0  0  0  0  0  0  0  0  0  0
  1  2  1  0
  2  3  2  0
  3  4  1  0
  3  5  1  0
  5  6  1  0
  5  7  2  0
  7  8  1  0
  8  9  1  0
  9 10  2  0
 10 11  1  0
 10 12  1  0
 12 13  1  0
 12 14  2  0
 14 15  1  0
 14 16  1  0
 16 17  1  0
 17 18  1  0
 18 19  2  0
 19 20  1  0
 19 21  1  0
 21 22  1  0
 21 23  2  0
 23 24  1  0
 23 25  1  0
 25 26  1  0
 26 27  1  0
 26 28  1  0
 26 29  1  0
 25 30  2  0
 30 31  1  0
 16 32  2  0
 32 33  1  0
  8 34  1  0
 34 35  2  0
 34 36  1  0
 36 37  1  0
 37 38  1  0
 37 39  1  0
 37 40  1  0
 36 41  1  0
 41 42  1  0
 42 43  1  0
 42 44  1  0
 41 45  2  0
 45 46  1  0
  7 47  1  0
 47 48  1  0
 47 49  2  0
 49 50  1  0
 49  2  1  0
 45  8  1  0
 32  9  1  0
 30 18  1  0
M  CHG  1  45   1
M  END
>  <score>  (30) 
6.24501

$$$$

     RDKit          3D

 55 59  0  0  0  0  0  0  0  0999 V2000
   16.1247   -8.4890   -1.6110 H   0  0  0  0  0  0  0  0  0  0  0  0
   15.8533   -7.4445   -1.4708 C   0  0  0  0  0  0  0  0  0  0  0  0
   16.7270   -6.5861   -0.8003 C   0  0  0  0  0  0  0  0  0  0  0  0
   17.6742   -6.9553   -0.4185 H   0  0  0  0  0  0  0  0  0  0  0  0
   16.3883   -5.2415   -0.6107 C   0  0  0  0  0  0  0  0  0  0  0  0
   17.0679   -4.5921   -0.0668 H   0  0  0  0  0  0  0  0  0  0  0  0
   15.1693   -4.7197   -1.0728 C   0  0  0  0  0  0  0  0  0  0  0  0
   14.8127   -3.2533   -0.7833 C   0  0  0  0  0  0  0  0  0  0  0  0
   15.3923   -2.2490   -1.7797 C   0  0  0  0  0  0  0  0  0  0  0  0
   15.9459   -2.6422   -3.0087 C   0  0  0  0  0  0  0  0  0  0  0  0
   16.0045   -3.6938   -3.2641 H   0  0  0  0  0  0  0  0  0  0  0  0
   16.4236   -1.6911   -3.9208 C   0  0  0  0  0  0  0  0  0  0  0  0
   16.8561   -2.0040   -4.8653 H   0  0  0  0  0  0  0  0  0  0  0  0
   16.3432   -0.3284   -3.6272 C   0  0  0  0  0  0  0  0  0  0  0  0
   16.6943    0.4064   -4.3474 H   0  0  0  0  0  0  0  0  0  0  0  0
   15.7874    0.0932   -2.4144 C   0  0  0  0  0  0  0  0  0  0  0  0
   15.6474    1.5680   -2.1076 C   0  0  0  0  0  0  0  0  0  0  0  0
   15.8454    1.7580   -1.0480 H   0  0  0  0  0  0  0  0  0  0  0  0
   16.3793    2.1528   -2.6737 H   0  0  0  0  0  0  0  0  0  0  0  0
   14.2535    2.0251   -2.4569 C   0  0  0  0  0  0  0  0  0  0  0  0
   13.2386    2.0051   -1.4948 C   0  0  0  0  0  0  0  0  0  0  0  0
   13.4637    1.6800   -0.4876 H   0  0  0  0  0  0  0  0  0  0  0  0
   11.9319    2.3822   -1.8213 C   0  0  0  0  0  0  0  0  0  0  0  0
   11.1550    2.3478   -1.0641 H   0  0  0  0  0  0  0  0  0  0  0  0
   11.6217    2.7929   -3.1233 C   0  0  0  0  0  0  0  0  0  0  0  0
   10.3151    3.1688   -3.4657 C   0  0  0  0  0  0  0  0  0  0  0  0
    9.5341    3.1446   -2.7128 H   0  0  0  0  0  0  0  0  0  0  0  0
   10.0158    3.5740   -4.7715 C   0  0  0  0  0  0  0  0  0  0  0  0
    9.0019    3.8632   -5.0316 H   0  0  0  0  0  0  0  0  0  0  0  0
   11.0220    3.6039   -5.7425 C   0  0  0  0  0  0  0  0  0  0  0  0
   10.7877    3.9164   -6.7560 H   0  0  0  0  0  0  0  0  0  0  0  0
   12.3299    3.2296   -5.4085 C   0  0  0  0  0  0  0  0  0  0  0  0
   13.1080    3.2516   -6.1654 H   0  0  0  0  0  0  0  0  0  0  0  0
   12.6395    2.8248   -4.1014 C   0  0  0  0  0  0  0  0  0  0  0  0
   13.9438    2.4415   -3.7571 C   0  0  0  0  0  0  0  0  0  0  0  0
   14.7199    2.4496   -4.5121 H   0  0  0  0  0  0  0  0  0  0  0  0
   15.3194   -0.8699   -1.5065 C   0  0  0  0  0  0  0  0  0  0  0  0
   14.8891   -0.5301   -0.5701 H   0  0  0  0  0  0  0  0  0  0  0  0
   13.2991   -3.0207   -0.6072 C   0  0  0  0  0  0  0  0  0  0  0  0
   12.4278   -3.0842   -1.4722 O   0  0  0  0  0  0  0  0  0  0  0  0
   13.0226   -2.6721    0.7009 N   0  0  0  0  0  0  0  0  0  0  0  0
   11.7210   -2.3133    1.2611 C   0  0  0  0  0  0  0  0  0  0  0  0
   11.6910   -1.2610    1.5535 H   0  0  0  0  0  0  0  0  0  0  0  0
   10.9137   -2.4798    0.5427 H   0  0  0  0  0  0  0  0  0  0  0  0
   11.5044   -2.9126    2.1477 H   0  0  0  0  0  0  0  0  0  0  0  0
   14.2234   -2.6304    1.3657 C   0  0  0  0  0  0  0  0  0  0  0  0
   14.3936   -2.3356    2.6861 N   0  0  0  0  0  0  0  0  0  0  0  0
   13.5810   -2.1264    3.2624 H   0  0  0  0  0  0  0  0  0  0  0  0
   15.3283   -2.3564    3.0931 H   0  0  0  0  0  0  0  0  0  0  0  0
   15.2180   -2.9074    0.5929 N   0  0  0  0  0  4  0  0  0  0  0  0
   16.1879   -2.9031    0.9023 H   0  0  0  0  0  0  0  0  0  0  0  0
   14.3011   -5.5927   -1.7675 C   0  0  0  0  0  0  0  0  0  0  0  0
   13.3524   -5.2416   -2.1643 H   0  0  0  0  0  0  0  0  0  0  0  0
   14.6427   -6.9441   -1.9611 C   0  0  0  0  0  0  0  0  0  0  0  0
   13.9732   -7.6185   -2.4884 H   0  0  0  0  0  0  0  0  0  0  0  0
  1  2  1  0
  2  3  2  0
  3  4  1  0
  3  5  1  0
  5  6  1  0
  5  7  2  0
  7  8  1  0
  8  9  1  0
  9 10  2  0
 10 11  1  0
 10 12  1  0
 12 13  1  0
 12 14  2  0
 14 15  1  0
 14 16  1  0
 16 17  1  0
 17 18  1  0
 17 19  1  0
 17 20  1  0
 20 21  2  0
 21 22  1  0
 21 23  1  0
 23 24  1  0
 23 25  2  0
 25 26  1  0
 26 27  1  0
 26 28  2  0
 28 29  1  0
 28 30  1  0
 30 31  1  0
 30 32  2  0
 32 33  1  0
 32 34  1  0
 34 35  2  0
 35 36  1  0
 16 37  2  0
 37 38  1  0
  8 39  1  0
 39 40  2  0
 39 41  1  0
 41 42  1  0
 42 43  1  0
 42 44  1  0
 42 45  1  0
 41 46  1  0
 46 47  1  0
 47 48  1  0
 47 49  1  0
 46 50  2  0
 50 51  1  0
  7 52  1  0
 52 53  1  0
 52 54  2  0
 54 55  1  0
 54  2  1  0
 50  8  1  0
 37  9  1  0
 35 20  1  0
 34 25  1  0
M  CHG  1  50   1
M  END
>  <score>  (31) 
6.23487

$$$$

     RDKit          3D

 49 53  0  0  0  0  0  0  0  0999 V2000
   16.1303   -8.3778   -1.6680 H   0  0  0  0  0  0  0  0  0  0  0  0
   15.8792   -7.3345   -1.4876 C   0  0  0  0  0  0  0  0  0  0  0  0
   16.7627   -6.5054   -0.7845 C   0  0  0  0  0  0  0  0  0  0  0  0
   17.7059   -6.8975   -0.4180 H   0  0  0  0  0  0  0  0  0  0  0  0
   16.4319   -5.1680   -0.5354 C   0  0  0  0  0  0  0  0  0  0  0  0
   17.1247   -4.5327    0.0097 H   0  0  0  0  0  0  0  0  0  0  0  0
   15.2045   -4.6463   -0.9701 C   0  0  0  0  0  0  0  0  0  0  0  0
   14.8097   -3.2082   -0.6770 C   0  0  0  0  0  0  0  0  0  0  0  0
   15.3554   -2.2376   -1.7064 C   0  0  0  0  0  0  0  0  0  0  0  0
   15.9256   -2.6801   -2.9129 C   0  0  0  0  0  0  0  0  0  0  0  0
   15.9882   -3.7414   -3.1335 H   0  0  0  0  0  0  0  0  0  0  0  0
   16.4356   -1.7610   -3.8326 C   0  0  0  0  0  0  0  0  0  0  0  0
   16.8851   -2.0936   -4.7598 H   0  0  0  0  0  0  0  0  0  0  0  0
   16.3819   -0.3942   -3.5516 C   0  0  0  0  0  0  0  0  0  0  0  0
   16.7797    0.3269   -4.2589 H   0  0  0  0  0  0  0  0  0  0  0  0
   15.7932    0.0680   -2.3683 C   0  0  0  0  0  0  0  0  0  0  0  0
   15.7425    1.5019   -2.0769 C   0  0  0  0  0  0  0  0  0  0  0  0
   16.7862    2.3391   -2.5079 C   0  0  0  0  0  0  0  0  0  0  0  0
   17.6241    1.9023   -3.0398 H   0  0  0  0  0  0  0  0  0  0  0  0
   16.7665    3.7122   -2.2374 C   0  0  0  0  0  0  0  0  0  0  0  0
   17.5787    4.3577   -2.5527 H   0  0  0  0  0  0  0  0  0  0  0  0
   15.6804    4.2406   -1.5464 C   0  0  0  0  0  0  0  0  0  0  0  0
   14.6441    3.4387   -1.1254 C   0  0  0  0  0  0  0  0  0  0  0  0
   13.7124    4.3328   -0.4646 C   0  0  0  0  0  0  0  0  0  0  0  0
   12.7697    4.0185   -0.0271 H   0  0  0  0  0  0  0  0  0  0  0  0
   14.1603    5.5714   -0.4733 N   0  0  0  0  0  0  0  0  0  0  0  0
   15.3556    5.5148   -1.1286 N   0  0  0  0  0  0  0  0  0  0  0  0
   15.9603    6.3185   -1.2881 H   0  0  0  0  0  0  0  0  0  0  0  0
   14.6633    2.0608   -1.3683 C   0  0  0  0  0  0  0  0  0  0  0  0
   13.8470    1.4294   -1.0278 H   0  0  0  0  0  0  0  0  0  0  0  0
   15.2696   -0.8598   -1.4619 C   0  0  0  0  0  0  0  0  0  0  0  0
   14.8289   -0.5113   -0.5315 H   0  0  0  0  0  0  0  0  0  0  0  0
   13.2829   -3.0566   -0.5363 C   0  0  0  0  0  0  0  0  0  0  0  0
   12.4395   -3.1330   -1.4291 O   0  0  0  0  0  0  0  0  0  0  0  0
   12.9562   -2.7888    0.7747 N   0  0  0  0  0  0  0  0  0  0  0  0
   11.6378   -2.3691    1.2473 C   0  0  0  0  0  0  0  0  0  0  0  0
   11.3129   -2.9649    2.1166 H   0  0  0  0  0  0  0  0  0  0  0  0
   10.8978   -2.4922    0.4422 H   0  0  0  0  0  0  0  0  0  0  0  0
   11.6733   -1.3074    1.5271 H   0  0  0  0  0  0  0  0  0  0  0  0
   14.1494   -2.6666    1.4525 C   0  0  0  0  0  0  0  0  0  0  0  0
   14.2810   -2.4333    2.7914 N   0  0  0  0  0  0  0  0  0  0  0  0
   15.1921   -2.1458    3.1487 H   0  0  0  0  0  0  0  0  0  0  0  0
   13.4363   -2.1979    3.3120 H   0  0  0  0  0  0  0  0  0  0  0  0
   15.1851   -2.8283    0.7037 N   0  0  0  0  0  4  0  0  0  0  0  0
   16.1104   -3.0055    1.1022 H   0  0  0  0  0  0  0  0  0  0  0  0
   14.3411   -5.4775   -1.7035 C   0  0  0  0  0  0  0  0  0  0  0  0
   13.3997   -5.0874   -2.0754 H   0  0  0  0  0  0  0  0  0  0  0  0
   14.6681   -6.8126   -1.9555 C   0  0  0  0  0  0  0  0  0  0  0  0
   13.9701   -7.4411   -2.5003 H   0  0  0  0  0  0  0  0  0  0  0  0
  1  2  1  0
  2  3  2  0
  3  4  1  0
  3  5  1  0
  5  6  1  0
  5  7  2  0
  7  8  1  0
  8  9  1  0
  9 10  2  0
 10 11  1  0
 10 12  1  0
 12 13  1  0
 12 14  2  0
 14 15  1  0
 14 16  1  0
 16 17  1  0
 17 18  2  0
 18 19  1  0
 18 20  1  0
 20 21  1  0
 20 22  2  0
 22 23  1  0
 23 24  1  0
 24 25  1  0
 24 26  2  0
 26 27  1  0
 27 28  1  0
 23 29  2  0
 29 30  1  0
 16 31  2  0
 31 32  1  0
  8 33  1  0
 33 34  2  0
 33 35  1  0
 35 36  1  0
 36 37  1  0
 36 38  1  0
 36 39  1  0
 35 40  1  0
 40 41  1  0
 41 42  1  0
 41 43  1  0
 40 44  2  0
 44 45  1  0
  7 46  1  0
 46 47  1  0
 46 48  2  0
 48 49  1  0
 48  2  1  0
 44  8  1  0
 31  9  1  0
 29 17  1  0
 27 22  1  0
M  CHG  1  44   1
M  END
>  <score>  (32) 
6.23209

$$$$

     RDKit          3D

 55 59  0  0  0  0  0  0  0  0999 V2000
   16.0875   -8.3537   -1.7036 H   0  0  0  0  0  0  0  0  0  0  0  0
   15.8671   -7.3083   -1.5112 C   0  0  0  0  0  0  0  0  0  0  0  0
   16.7862   -6.5143   -0.8144 C   0  0  0  0  0  0  0  0  0  0  0  0
   17.7278   -6.9346   -0.4719 H   0  0  0  0  0  0  0  0  0  0  0  0
   16.4983   -5.1695   -0.5544 C   0  0  0  0  0  0  0  0  0  0  0  0
   17.2182   -4.5544   -0.0223 H   0  0  0  0  0  0  0  0  0  0  0  0
   15.2805   -4.6087   -0.9686 C   0  0  0  0  0  0  0  0  0  0  0  0
   14.9256   -3.1620   -0.6628 C   0  0  0  0  0  0  0  0  0  0  0  0
   15.4452   -2.2010   -1.7314 C   0  0  0  0  0  0  0  0  0  0  0  0
   15.9232   -2.6642   -2.9728 C   0  0  0  0  0  0  0  0  0  0  0  0
   15.9722   -3.7327   -3.1586 H   0  0  0  0  0  0  0  0  0  0  0  0
   16.3485   -1.7740   -3.9677 C   0  0  0  0  0  0  0  0  0  0  0  0
   16.7377   -2.1388   -4.9113 H   0  0  0  0  0  0  0  0  0  0  0  0
   16.2816   -0.3978   -3.7419 C   0  0  0  0  0  0  0  0  0  0  0  0
   16.6114    0.3204   -4.4853 H   0  0  0  0  0  0  0  0  0  0  0  0
   15.8059    0.0821   -2.5272 C   0  0  0  0  0  0  0  0  0  0  0  0
   15.8071    1.4533   -2.2929 N   0  0  0  0  0  0  0  0  0  0  0  0
   16.4882    1.9286   -1.0682 C   0  0  0  0  0  0  0  0  0  0  0  0
   17.5030    2.2570   -1.3113 H   0  0  0  0  0  0  0  0  0  0  0  0
   16.5664    1.0982   -0.3608 H   0  0  0  0  0  0  0  0  0  0  0  0
   15.7323    3.0178   -0.3680 C   0  0  0  0  0  0  0  0  0  0  0  0
   15.8772    3.1943    1.0154 C   0  0  0  0  0  0  0  0  0  0  0  0
   16.6232    2.6232    1.5549 H   0  0  0  0  0  0  0  0  0  0  0  0
   15.0669    4.0960    1.6998 C   0  0  0  0  0  0  0  0  0  0  0  0
   15.1805    4.2179    2.7742 H   0  0  0  0  0  0  0  0  0  0  0  0
   14.1083    4.8309    0.9955 C   0  0  0  0  0  0  0  0  0  0  0  0
   13.4349    5.4781    1.5415 H   0  0  0  0  0  0  0  0  0  0  0  0
   14.0512    4.7516   -0.4034 C   0  0  0  0  0  0  0  0  0  0  0  0
   13.3732    5.3837   -0.9679 H   0  0  0  0  0  0  0  0  0  0  0  0
   14.8741    3.8517   -1.0889 C   0  0  0  0  0  0  0  0  0  0  0  0
   14.8824    3.7708   -2.5971 C   0  0  0  0  0  0  0  0  0  0  0  0
   13.9955    4.2684   -2.9985 H   0  0  0  0  0  0  0  0  0  0  0  0
   15.7642    4.2957   -2.9715 H   0  0  0  0  0  0  0  0  0  0  0  0
   14.9492    2.3293   -3.1186 C   0  0  0  0  0  0  0  0  0  0  0  0
   13.9372    1.9201   -3.1471 H   0  0  0  0  0  0  0  0  0  0  0  0
   15.3198    2.3353   -4.1484 H   0  0  0  0  0  0  0  0  0  0  0  0
   15.3946   -0.8091   -1.5286 C   0  0  0  0  0  0  0  0  0  0  0  0
   15.0292   -0.3925   -0.5944 H   0  0  0  0  0  0  0  0  0  0  0  0
   13.4038   -2.9877   -0.4896 C   0  0  0  0  0  0  0  0  0  0  0  0
   12.5217   -3.2200   -1.3134 O   0  0  0  0  0  0  0  0  0  0  0  0
   13.1282   -2.5694    0.7947 N   0  0  0  0  0  0  0  0  0  0  0  0
   11.8035   -2.2682    1.3369 C   0  0  0  0  0  0  0  0  0  0  0  0
   11.7301   -1.2123    1.6126 H   0  0  0  0  0  0  0  0  0  0  0  0
   11.0216   -2.4720    0.6008 H   0  0  0  0  0  0  0  0  0  0  0  0
   11.5940   -2.8777    2.2213 H   0  0  0  0  0  0  0  0  0  0  0  0
   14.3298   -2.4957    1.4633 C   0  0  0  0  0  0  0  0  0  0  0  0
   14.4942   -2.1778    2.7765 N   0  0  0  0  0  0  0  0  0  0  0  0
   13.6823   -2.0739    3.3811 H   0  0  0  0  0  0  0  0  0  0  0  0
   15.4316   -2.2261    3.1753 H   0  0  0  0  0  0  0  0  0  0  0  0
   15.3365   -2.7918    0.7094 N   0  0  0  0  0  4  0  0  0  0  0  0
   16.2805   -2.9361    1.0766 H   0  0  0  0  0  0  0  0  0  0  0  0
   14.3856   -5.4068   -1.7012 C   0  0  0  0  0  0  0  0  0  0  0  0
   13.4556   -4.9860   -2.0711 H   0  0  0  0  0  0  0  0  0  0  0  0
   14.6693   -6.7481   -1.9669 C   0  0  0  0  0  0  0  0  0  0  0  0
   13.9553   -7.3521   -2.5200 H   0  0  0  0  0  0  0  0  0  0  0  0
  1  2  1  0
  2  3  2  0
  3  4  1  0
  3  5  1  0
  5  6  1  0
  5  7  2  0
  7  8  1  0
  8  9  1  0
  9 10  2  0
 10 11  1  0
 10 12  1  0
 12 13  1  0
 12 14  2  0
 14 15  1  0
 14 16  1  0
 16 17  1  0
 17 18  1  0
 18 19  1  0
 18 20  1  0
 18 21  1  0
 21 22  2  0
 22 23  1  0
 22 24  1  0
 24 25  1  0
 24 26  2  0
 26 27  1  0
 26 28  1  0
 28 29  1  0
 28 30  2  0
 30 31  1  0
 31 32  1  0
 31 33  1  0
 31 34  1  0
 34 35  1  0
 34 36  1  0
 16 37  2  0
 37 38  1  0
  8 39  1  0
 39 40  2  0
 39 41  1  0
 41 42  1  0
 42 43  1  0
 42 44  1  0
 42 45  1  0
 41 46  1  0
 46 47  1  0
 47 48  1  0
 47 49  1  0
 46 50  2  0
 50 51  1  0
  7 52  1  0
 52 53  1  0
 52 54  2  0
 54 55  1  0
 54  2  1  0
 50  8  1  0
 37  9  1  0
 34 17  1  0
 30 21  1  0
M  CHG  1  50   1
M  END
>  <score>  (33) 
6.22969

$$$$

     RDKit          3D

 52 55  0  0  0  0  0  0  0  0999 V2000
   16.1247   -8.4889   -1.6110 H   0  0  0  0  0  0  0  0  0  0  0  0
   15.8532   -7.4446   -1.4708 C   0  0  0  0  0  0  0  0  0  0  0  0
   16.7270   -6.5863   -0.8001 C   0  0  0  0  0  0  0  0  0  0  0  0
   17.6743   -6.9551   -0.4185 H   0  0  0  0  0  0  0  0  0  0  0  0
   16.3887   -5.2419   -0.6105 C   0  0  0  0  0  0  0  0  0  0  0  0
   17.0679   -4.5918   -0.0668 H   0  0  0  0  0  0  0  0  0  0  0  0
   15.1696   -4.7200   -1.0722 C   0  0  0  0  0  0  0  0  0  0  0  0
   14.8126   -3.2539   -0.7838 C   0  0  0  0  0  0  0  0  0  0  0  0
   15.3913   -2.2489   -1.7797 C   0  0  0  0  0  0  0  0  0  0  0  0
   15.9448   -2.6415   -3.0089 C   0  0  0  0  0  0  0  0  0  0  0  0
   16.0048   -3.6930   -3.2652 H   0  0  0  0  0  0  0  0  0  0  0  0
   16.4229   -1.6910   -3.9204 C   0  0  0  0  0  0  0  0  0  0  0  0
   16.8555   -2.0056   -4.8641 H   0  0  0  0  0  0  0  0  0  0  0  0
   16.3431   -0.3281   -3.6269 C   0  0  0  0  0  0  0  0  0  0  0  0
   16.6948    0.4057   -4.3476 H   0  0  0  0  0  0  0  0  0  0  0  0
   15.7877    0.0936   -2.4139 C   0  0  0  0  0  0  0  0  0  0  0  0
   15.6496    1.5685   -2.1068 C   0  0  0  0  0  0  0  0  0  0  0  0
   16.3892    2.1511   -2.6647 H   0  0  0  0  0  0  0  0  0  0  0  0
   15.8366    1.7570   -1.0452 H   0  0  0  0  0  0  0  0  0  0  0  0
   14.2606    2.0306   -2.4707 C   0  0  0  0  0  0  0  0  0  0  0  0
   13.9719    2.4692   -3.7680 C   0  0  0  0  0  0  0  0  0  0  0  0
   14.7590    2.4928   -4.5116 H   0  0  0  0  0  0  0  0  0  0  0  0
   12.6750    2.8614   -4.1164 C   0  0  0  0  0  0  0  0  0  0  0  0
   12.4641    3.1966   -5.1268 H   0  0  0  0  0  0  0  0  0  0  0  0
   11.6463    2.8178   -3.1702 C   0  0  0  0  0  0  0  0  0  0  0  0
   10.2572    3.2521   -3.5384 C   0  0  0  0  0  0  0  0  0  0  0  0
   10.0577    3.0669   -4.5964 H   0  0  0  0  0  0  0  0  0  0  0  0
    9.5110    2.7146   -2.9488 H   0  0  0  0  0  0  0  0  0  0  0  0
   10.1398    4.3199   -3.3489 H   0  0  0  0  0  0  0  0  0  0  0  0
   11.9300    2.3842   -1.8719 C   0  0  0  0  0  0  0  0  0  0  0  0
   11.1399    2.3469   -1.1292 H   0  0  0  0  0  0  0  0  0  0  0  0
   13.2283    1.9962   -1.5263 C   0  0  0  0  0  0  0  0  0  0  0  0
   13.4356    1.6600   -0.5183 H   0  0  0  0  0  0  0  0  0  0  0  0
   15.3196   -0.8694   -1.5061 C   0  0  0  0  0  0  0  0  0  0  0  0
   14.8901   -0.5291   -0.5695 H   0  0  0  0  0  0  0  0  0  0  0  0
   13.2987   -3.0237   -0.6073 C   0  0  0  0  0  0  0  0  0  0  0  0
   12.4282   -3.0826   -1.4723 O   0  0  0  0  0  0  0  0  0  0  0  0
   13.0232   -2.6722    0.7003 N   0  0  0  0  0  0  0  0  0  0  0  0
   11.7207   -2.3133    1.2610 C   0  0  0  0  0  0  0  0  0  0  0  0
   11.6909   -1.2614    1.5540 H   0  0  0  0  0  0  0  0  0  0  0  0
   10.9137   -2.4794    0.5430 H   0  0  0  0  0  0  0  0  0  0  0  0
   11.5044   -2.9127    2.1473 H   0  0  0  0  0  0  0  0  0  0  0  0
   14.2228   -2.6305    1.3655 C   0  0  0  0  0  0  0  0  0  0  0  0
   14.3942   -2.3352    2.6866 N   0  0  0  0  0  0  0  0  0  0  0  0
   15.3278   -2.3567    3.0933 H   0  0  0  0  0  0  0  0  0  0  0  0
   13.5810   -2.1267    3.2630 H   0  0  0  0  0  0  0  0  0  0  0  0
   15.2187   -2.9060    0.5923 N   0  0  0  0  0  4  0  0  0  0  0  0
   16.1876   -2.9051    0.9015 H   0  0  0  0  0  0  0  0  0  0  0  0
   14.3012   -5.5929   -1.7671 C   0  0  0  0  0  0  0  0  0  0  0  0
   13.3529   -5.2412   -2.1642 H   0  0  0  0  0  0  0  0  0  0  0  0
   14.6427   -6.9441   -1.9609 C   0  0  0  0  0  0  0  0  0  0  0  0
   13.9733   -7.6182   -2.4885 H   0  0  0  0  0  0  0  0  0  0  0  0
  1  2  1  0
  2  3  2  0
  3  4  1  0
  3  5  1  0
  5  6  1  0
  5  7  2  0
  7  8  1  0
  8  9  1  0
  9 10  2  0
 10 11  1  0
 10 12  1  0
 12 13  1  0
 12 14  2  0
 14 15  1  0
 14 16  1  0
 16 17  1  0
 17 18  1  0
 17 19  1  0
 17 20  1  0
 20 21  2  0
 21 22  1  0
 21 23  1  0
 23 24  1  0
 23 25  2  0
 25 26  1  0
 26 27  1  0
 26 28  1  0
 26 29  1  0
 25 30  1  0
 30 31  1  0
 30 32  2  0
 32 33  1  0
 16 34  2  0
 34 35  1  0
  8 36  1  0
 36 37  2  0
 36 38  1  0
 38 39  1  0
 39 40  1  0
 39 41  1  0
 39 42  1  0
 38 43  1  0
 43 44  1  0
 44 45  1  0
 44 46  1  0
 43 47  2  0
 47 48  1  0
  7 49  1  0
 49 50  1  0
 49 51  2  0
 51 52  1  0
 51  2  1  0
 47  8  1  0
 34  9  1  0
 32 20  1  0
M  CHG  1  47   1
M  END
>  <score>  (34) 
6.22937

$$$$

     RDKit          3D

 46 49  0  0  0  0  0  0  0  0999 V2000
   16.1240   -8.4883   -1.6111 H   0  0  0  0  0  0  0  0  0  0  0  0
   15.8528   -7.4437   -1.4714 C   0  0  0  0  0  0  0  0  0  0  0  0
   16.7272   -6.5857   -0.8010 C   0  0  0  0  0  0  0  0  0  0  0  0
   17.6736   -6.9555   -0.4180 H   0  0  0  0  0  0  0  0  0  0  0  0
   16.3897   -5.2406   -0.6118 C   0  0  0  0  0  0  0  0  0  0  0  0
   17.0666   -4.5903   -0.0656 H   0  0  0  0  0  0  0  0  0  0  0  0
   15.1711   -4.7186   -1.0739 C   0  0  0  0  0  0  0  0  0  0  0  0
   14.8135   -3.2531   -0.7840 C   0  0  0  0  0  0  0  0  0  0  0  0
   15.3868   -2.2471   -1.7822 C   0  0  0  0  0  0  0  0  0  0  0  0
   15.9413   -2.6409   -3.0094 C   0  0  0  0  0  0  0  0  0  0  0  0
   16.0030   -3.6933   -3.2626 H   0  0  0  0  0  0  0  0  0  0  0  0
   16.4223   -1.6906   -3.9193 C   0  0  0  0  0  0  0  0  0  0  0  0
   16.8533   -2.0051   -4.8636 H   0  0  0  0  0  0  0  0  0  0  0  0
   16.3520   -0.3272   -3.6200 C   0  0  0  0  0  0  0  0  0  0  0  0
   16.7020    0.4062   -4.3417 H   0  0  0  0  0  0  0  0  0  0  0  0
   15.7917    0.1039   -2.4086 C   0  0  0  0  0  0  0  0  0  0  0  0
   15.7028    1.5473   -2.0909 C   0  0  0  0  0  0  0  0  0  0  0  0
   16.7377    2.4306   -2.4360 C   0  0  0  0  0  0  0  0  0  0  0  0
   17.6239    2.0391   -2.9200 H   0  0  0  0  0  0  0  0  0  0  0  0
   16.6612    3.7981   -2.1345 C   0  0  0  0  0  0  0  0  0  0  0  0
   17.4796    4.4582   -2.4027 H   0  0  0  0  0  0  0  0  0  0  0  0
   15.5346    4.3071   -1.4812 C   0  0  0  0  0  0  0  0  0  0  0  0
   15.4644    5.3655   -1.2409 H   0  0  0  0  0  0  0  0  0  0  0  0
   14.4907    3.4458   -1.1303 C   0  0  0  0  0  0  0  0  0  0  0  0
   13.0751    4.0720   -0.3170 Cl  0  0  0  0  0  0  0  0  0  0  0  0
   14.5833    2.0798   -1.4319 C   0  0  0  0  0  0  0  0  0  0  0  0
   13.7615    1.4313   -1.1574 H   0  0  0  0  0  0  0  0  0  0  0  0
   15.3137   -0.8666   -1.5091 C   0  0  0  0  0  0  0  0  0  0  0  0
   14.9014   -0.5306   -0.5640 H   0  0  0  0  0  0  0  0  0  0  0  0
   13.3004   -3.0263   -0.6052 C   0  0  0  0  0  0  0  0  0  0  0  0
   12.4300   -3.0847   -1.4708 O   0  0  0  0  0  0  0  0  0  0  0  0
   13.0232   -2.6737    0.7017 N   0  0  0  0  0  0  0  0  0  0  0  0
   11.7217   -2.3138    1.2610 C   0  0  0  0  0  0  0  0  0  0  0  0
   11.6920   -1.2631    1.5576 H   0  0  0  0  0  0  0  0  0  0  0  0
   11.5029   -2.9145    2.1454 H   0  0  0  0  0  0  0  0  0  0  0  0
   10.9134   -2.4755    0.5430 H   0  0  0  0  0  0  0  0  0  0  0  0
   14.2240   -2.6295    1.3658 C   0  0  0  0  0  0  0  0  0  0  0  0
   14.3943   -2.3346    2.6860 N   0  0  0  0  0  0  0  0  0  0  0  0
   13.5814   -2.1265    3.2625 H   0  0  0  0  0  0  0  0  0  0  0  0
   15.3291   -2.3549    3.0936 H   0  0  0  0  0  0  0  0  0  0  0  0
   15.2179   -2.9049    0.5910 N   0  0  0  0  0  4  0  0  0  0  0  0
   16.1872   -2.9054    0.9012 H   0  0  0  0  0  0  0  0  0  0  0  0
   14.3016   -5.5912   -1.7671 C   0  0  0  0  0  0  0  0  0  0  0  0
   13.3526   -5.2393   -2.1622 H   0  0  0  0  0  0  0  0  0  0  0  0
   14.6426   -6.9427   -1.9615 C   0  0  0  0  0  0  0  0  0  0  0  0
   13.9734   -7.6175   -2.4883 H   0  0  0  0  0  0  0  0  0  0  0  0
  1  2  1  0
  2  3  2  0
  3  4  1  0
  3  5  1  0
  5  6  1  0
  5  7  2  0
  7  8  1  0
  8  9  1  0
  9 10  2  0
 10 11  1  0
 10 12  1  0
 12 13  1  0
 12 14  2  0
 14 15  1  0
 14 16  1  0
 16 17  1  0
 17 18  2  0
 18 19  1  0
 18 20  1  0
 20 21  1  0
 20 22  2  0
 22 23  1  0
 22 24  1  0
 24 25  1  0
 24 26  2  0
 26 27  1  0
 16 28  2  0
 28 29  1  0
  8 30  1  0
 30 31  2  0
 30 32  1  0
 32 33  1  0
 33 34  1  0
 33 35  1  0
 33 36  1  0
 32 37  1  0
 37 38  1  0
 38 39  1  0
 38 40  1  0
 37 41  2  0
 41 42  1  0
  7 43  1  0
 43 44  1  0
 43 45  2  0
 45 46  1  0
 45  2  1  0
 41  8  1  0
 28  9  1  0
 26 17  1  0
M  CHG  1  41   1
M  END
>  <score>  (35) 
6.21304

$$$$

     RDKit          3D

 50 53  0  0  0  0  0  0  0  0999 V2000
   16.0984   -8.4587   -1.6175 H   0  0  0  0  0  0  0  0  0  0  0  0
   15.8593   -7.4070   -1.4859 C   0  0  0  0  0  0  0  0  0  0  0  0
   16.7428   -6.5642   -0.8047 C   0  0  0  0  0  0  0  0  0  0  0  0
   17.6733   -6.9593   -0.4088 H   0  0  0  0  0  0  0  0  0  0  0  0
   16.4136   -5.2179   -0.6072 C   0  0  0  0  0  0  0  0  0  0  0  0
   17.0808   -4.5661   -0.0516 H   0  0  0  0  0  0  0  0  0  0  0  0
   15.1969   -4.6944   -1.0715 C   0  0  0  0  0  0  0  0  0  0  0  0
   14.8266   -3.2428   -0.7663 C   0  0  0  0  0  0  0  0  0  0  0  0
   15.3793   -2.2339   -1.7711 C   0  0  0  0  0  0  0  0  0  0  0  0
   15.9387   -2.6356   -2.9952 C   0  0  0  0  0  0  0  0  0  0  0  0
   15.9868   -3.6953   -3.2300 H   0  0  0  0  0  0  0  0  0  0  0  0
   16.4232   -1.6883   -3.9081 C   0  0  0  0  0  0  0  0  0  0  0  0
   16.8458   -2.0061   -4.8556 H   0  0  0  0  0  0  0  0  0  0  0  0
   16.3605   -0.3250   -3.6021 C   0  0  0  0  0  0  0  0  0  0  0  0
   16.7358    0.4189   -4.2991 H   0  0  0  0  0  0  0  0  0  0  0  0
   15.7850    0.1012   -2.4017 C   0  0  0  0  0  0  0  0  0  0  0  0
   15.6823    1.5308   -2.0881 C   0  0  0  0  0  0  0  0  0  0  0  0
   16.7903    2.3585   -2.2997 C   0  0  0  0  0  0  0  0  0  0  0  0
   17.7079    1.9262   -2.6861 H   0  0  0  0  0  0  0  0  0  0  0  0
   16.7287    3.7151   -1.9873 C   0  0  0  0  0  0  0  0  0  0  0  0
   17.6078    4.3274   -2.1406 H   0  0  0  0  0  0  0  0  0  0  0  0
   15.5554    4.2679   -1.4736 C   0  0  0  0  0  0  0  0  0  0  0  0
   15.5239    5.3282   -1.2359 H   0  0  0  0  0  0  0  0  0  0  0  0
   14.4379    3.4456   -1.2726 C   0  0  0  0  0  0  0  0  0  0  0  0
   13.5137    3.8527   -0.8823 H   0  0  0  0  0  0  0  0  0  0  0  0
   14.4924    2.0737   -1.5722 C   0  0  0  0  0  0  0  0  0  0  0  0
   13.4239    1.2242   -1.4184 O   0  0  0  0  0  0  0  0  0  0  0  0
   12.2209    1.7706   -0.8843 C   0  0  0  0  0  0  0  0  0  0  0  0
   11.8447    2.5693   -1.5337 H   0  0  0  0  0  0  0  0  0  0  0  0
   11.4717    0.9727   -0.8228 H   0  0  0  0  0  0  0  0  0  0  0  0
   12.4052    2.1744    0.1165 H   0  0  0  0  0  0  0  0  0  0  0  0
   15.2887   -0.8541   -1.5040 C   0  0  0  0  0  0  0  0  0  0  0  0
   14.8408   -0.5099   -0.5757 H   0  0  0  0  0  0  0  0  0  0  0  0
   13.3054   -3.0450   -0.5916 C   0  0  0  0  0  0  0  0  0  0  0  0
   12.4432   -3.1372   -1.4603 O   0  0  0  0  0  0  0  0  0  0  0  0
   13.0282   -2.6852    0.7131 N   0  0  0  0  0  0  0  0  0  0  0  0
   11.7261   -2.3140    1.2740 C   0  0  0  0  0  0  0  0  0  0  0  0
   10.9198   -2.4885    0.5511 H   0  0  0  0  0  0  0  0  0  0  0  0
   11.7125   -1.2515    1.5449 H   0  0  0  0  0  0  0  0  0  0  0  0
   11.5113   -2.9074    2.1708 H   0  0  0  0  0  0  0  0  0  0  0  0
   14.2417   -2.6208    1.3671 C   0  0  0  0  0  0  0  0  0  0  0  0
   14.4140   -2.2962    2.6739 N   0  0  0  0  0  0  0  0  0  0  0  0
   13.6011   -2.1230    3.2594 H   0  0  0  0  0  0  0  0  0  0  0  0
   15.3499   -2.3291    3.0738 H   0  0  0  0  0  0  0  0  0  0  0  0
   15.2484   -2.9085    0.6116 N   0  0  0  0  0  4  0  0  0  0  0  0
   16.2137   -2.9714    0.9470 H   0  0  0  0  0  0  0  0  0  0  0  0
   14.3204   -5.5520   -1.7639 C   0  0  0  0  0  0  0  0  0  0  0  0
   13.3651   -5.1707   -2.1122 H   0  0  0  0  0  0  0  0  0  0  0  0
   14.6496   -6.9009   -1.9705 C   0  0  0  0  0  0  0  0  0  0  0  0
   13.9588   -7.5626   -2.4859 H   0  0  0  0  0  0  0  0  0  0  0  0
  1  2  1  0
  2  3  2  0
  3  4  1  0
  3  5  1  0
  5  6  1  0
  5  7  2  0
  7  8  1  0
  8  9  1  0
  9 10  2  0
 10 11  1  0
 10 12  1  0
 12 13  1  0
 12 14  2  0
 14 15  1  0
 14 16  1  0
 16 17  1  0
 17 18  2  0
 18 19  1  0
 18 20  1  0
 20 21  1  0
 20 22  2  0
 22 23  1  0
 22 24  1  0
 24 25  1  0
 24 26  2  0
 26 27  1  0
 27 28  1  0
 28 29  1  0
 28 30  1  0
 28 31  1  0
 16 32  2  0
 32 33  1  0
  8 34  1  0
 34 35  2  0
 34 36  1  0
 36 37  1  0
 37 38  1  0
 37 39  1  0
 37 40  1  0
 36 41  1  0
 41 42  1  0
 42 43  1  0
 42 44  1  0
 41 45  2  0
 45 46  1  0
  7 47  1  0
 47 48  1  0
 47 49  2  0
 49 50  1  0
 49  2  1  0
 45  8  1  0
 32  9  1  0
 26 17  1  0
M  CHG  1  45   1
M  END
>  <score>  (36) 
6.21057

$$$$

     RDKit          3D

 50 54  0  0  0  0  0  0  0  0999 V2000
   16.1108   -8.4500   -1.6644 H   0  0  0  0  0  0  0  0  0  0  0  0
   15.8617   -7.4100   -1.4862 C   0  0  0  0  0  0  0  0  0  0  0  0
   16.7586   -6.5841   -0.7991 C   0  0  0  0  0  0  0  0  0  0  0  0
   17.7049   -6.9672   -0.4351 H   0  0  0  0  0  0  0  0  0  0  0  0
   16.4365   -5.2502   -0.5676 C   0  0  0  0  0  0  0  0  0  0  0  0
   17.1342   -4.6020   -0.0397 H   0  0  0  0  0  0  0  0  0  0  0  0
   15.2026   -4.7490   -0.9986 C   0  0  0  0  0  0  0  0  0  0  0  0
   14.8329   -3.3259   -0.7171 C   0  0  0  0  0  0  0  0  0  0  0  0
   15.4012   -2.4129   -1.7744 C   0  0  0  0  0  0  0  0  0  0  0  0
   15.9434   -2.8291   -3.0073 C   0  0  0  0  0  0  0  0  0  0  0  0
   15.9822   -3.8794   -3.2617 H   0  0  0  0  0  0  0  0  0  0  0  0
   16.4385   -1.8944   -3.9295 C   0  0  0  0  0  0  0  0  0  0  0  0
   16.8510   -2.2007   -4.8840 H   0  0  0  0  0  0  0  0  0  0  0  0
   16.3895   -0.5353   -3.6289 C   0  0  0  0  0  0  0  0  0  0  0  0
   16.7709    0.2079   -4.3244 H   0  0  0  0  0  0  0  0  0  0  0  0
   15.8069   -0.1269   -2.4280 C   0  0  0  0  0  0  0  0  0  0  0  0
   15.6377    1.2559   -2.0907 C   0  0  0  0  0  0  0  0  0  0  0  0
   16.2301    2.3308   -2.6873 C   0  0  0  0  0  0  0  0  0  0  0  0
   16.9328    2.3139   -3.5101 H   0  0  0  0  0  0  0  0  0  0  0  0
   15.7330    3.4955   -2.0112 C   0  0  0  0  0  0  0  0  0  0  0  0
   16.0182    4.8357   -2.1851 C   0  0  0  0  0  0  0  0  0  0  0  0
   16.7416    5.1567   -2.9259 H   0  0  0  0  0  0  0  0  0  0  0  0
   15.3654    5.7365   -1.3565 C   0  0  0  0  0  0  0  0  0  0  0  0
   15.5966    6.7708   -1.4464 H   0  0  0  0  0  0  0  0  0  0  0  0
   14.4469    5.3150   -0.3959 C   0  0  0  0  0  0  0  0  0  0  0  0
   13.9802    6.0447    0.2368 H   0  0  0  0  0  0  0  0  0  0  0  0
   14.1554    3.9651   -0.2337 C   0  0  0  0  0  0  0  0  0  0  0  0
   13.4394    3.6035    0.4958 H   0  0  0  0  0  0  0  0  0  0  0  0
   14.8317    3.0758   -1.0442 C   0  0  0  0  0  0  0  0  0  0  0  0
   14.7974    1.7125   -1.0839 N   0  0  0  0  0  0  0  0  0  0  0  0
   14.2700    1.1337   -0.4362 H   0  0  0  0  0  0  0  0  0  0  0  0
   15.3250   -1.0571   -1.5230 C   0  0  0  0  0  0  0  0  0  0  0  0
   14.8749   -0.7104   -0.5977 H   0  0  0  0  0  0  0  0  0  0  0  0
   13.3201   -3.0894   -0.5483 C   0  0  0  0  0  0  0  0  0  0  0  0
   12.4538   -3.2117   -1.4110 O   0  0  0  0  0  0  0  0  0  0  0  0
   13.0558   -2.6746    0.7423 N   0  0  0  0  0  0  0  0  0  0  0  0
   11.7523   -2.3088    1.2921 C   0  0  0  0  0  0  0  0  0  0  0  0
   11.7420   -1.2486    1.5718 H   0  0  0  0  0  0  0  0  0  0  0  0
   11.5356   -2.9081    2.1845 H   0  0  0  0  0  0  0  0  0  0  0  0
   10.9532   -2.4810    0.5581 H   0  0  0  0  0  0  0  0  0  0  0  0
   14.2662   -2.5960    1.3960 C   0  0  0  0  0  0  0  0  0  0  0  0
   14.4508   -2.2192    2.6936 N   0  0  0  0  0  0  0  0  0  0  0  0
   13.6392   -2.1188    3.2993 H   0  0  0  0  0  0  0  0  0  0  0  0
   15.3834   -2.3003    3.0982 H   0  0  0  0  0  0  0  0  0  0  0  0
   15.2584   -2.9337    0.6431 N   0  0  0  0  0  4  0  0  0  0  0  0
   16.2194   -3.0212    0.9778 H   0  0  0  0  0  0  0  0  0  0  0  0
   14.3246   -5.5589   -1.7240 C   0  0  0  0  0  0  0  0  0  0  0  0
   13.3901   -5.1444   -2.0953 H   0  0  0  0  0  0  0  0  0  0  0  0
   14.6504   -6.8916   -1.9594 C   0  0  0  0  0  0  0  0  0  0  0  0
   13.9578   -7.5088   -2.5180 H   0  0  0  0  0  0  0  0  0  0  0  0
  1  2  1  0
  2  3  2  0
  3  4  1  0
  3  5  1  0
  5  6  1  0
  5  7  2  0
  7  8  1  0
  8  9  1  0
  9 10  2  0
 10 11  1  0
 10 12  1  0
 12 13  1  0
 12 14  2  0
 14 15  1  0
 14 16  1  0
 16 17  1  0
 17 18  2  0
 18 19  1  0
 18 20  1  0
 20 21  2  0
 21 22  1  0
 21 23  1  0
 23 24  1  0
 23 25  2  0
 25 26  1  0
 25 27  1  0
 27 28  1  0
 27 29  2  0
 29 30  1  0
 30 31  1  0
 16 32  2  0
 32 33  1  0
  8 34  1  0
 34 35  2  0
 34 36  1  0
 36 37  1  0
 37 38  1  0
 37 39  1  0
 37 40  1  0
 36 41  1  0
 41 42  1  0
 42 43  1  0
 42 44  1  0
 41 45  2  0
 45 46  1  0
  7 47  1  0
 47 48  1  0
 47 49  2  0
 49 50  1  0
 49  2  1  0
 45  8  1  0
 32  9  1  0
 30 17  1  0
 29 20  1  0
M  CHG  1  45   1
M  END
>  <score>  (37) 
6.20129

$$$$

     RDKit          3D

 51 55  0  0  0  0  0  0  0  0999 V2000
   16.1085   -8.4703   -1.6147 H   0  0  0  0  0  0  0  0  0  0  0  0
   15.8585   -7.4219   -1.4796 C   0  0  0  0  0  0  0  0  0  0  0  0
   16.7373   -6.5714   -0.8032 C   0  0  0  0  0  0  0  0  0  0  0  0
   17.6743   -6.9580   -0.4124 H   0  0  0  0  0  0  0  0  0  0  0  0
   16.4008   -5.2278   -0.6067 C   0  0  0  0  0  0  0  0  0  0  0  0
   17.0768   -4.5768   -0.0592 H   0  0  0  0  0  0  0  0  0  0  0  0
   15.1840   -4.7057   -1.0742 C   0  0  0  0  0  0  0  0  0  0  0  0
   14.8200   -3.2486   -0.7766 C   0  0  0  0  0  0  0  0  0  0  0  0
   15.3907   -2.2435   -1.7752 C   0  0  0  0  0  0  0  0  0  0  0  0
   15.9409   -2.6346   -3.0041 C   0  0  0  0  0  0  0  0  0  0  0  0
   15.9965   -3.6903   -3.2485 H   0  0  0  0  0  0  0  0  0  0  0  0
   16.4140   -1.6796   -3.9123 C   0  0  0  0  0  0  0  0  0  0  0  0
   16.8465   -1.9928   -4.8553 H   0  0  0  0  0  0  0  0  0  0  0  0
   16.3357   -0.3165   -3.6149 C   0  0  0  0  0  0  0  0  0  0  0  0
   16.7145    0.4084   -4.3323 H   0  0  0  0  0  0  0  0  0  0  0  0
   15.7975    0.1062   -2.3867 C   0  0  0  0  0  0  0  0  0  0  0  0
   15.7128    1.5371   -2.0290 C   0  0  0  0  0  0  0  0  0  0  0  0
   15.6890    1.8770   -0.7258 N   0  0  0  0  0  0  0  0  0  0  0  0
   15.6043    3.1698   -0.3816 C   0  0  0  0  0  0  0  0  0  0  0  0
   15.6293    3.5148    0.9644 C   0  0  0  0  0  0  0  0  0  0  0  0
   15.6664    2.7210    1.6845 H   0  0  0  0  0  0  0  0  0  0  0  0
   15.6498    4.8486    1.3718 C   0  0  0  0  0  0  0  0  0  0  0  0
   15.6653    5.1018    2.4257 H   0  0  0  0  0  0  0  0  0  0  0  0
   15.6703    5.8512    0.4077 C   0  0  0  0  0  0  0  0  0  0  0  0
   15.8598    6.8781    0.6974 H   0  0  0  0  0  0  0  0  0  0  0  0
   15.5308    5.5381   -0.9411 C   0  0  0  0  0  0  0  0  0  0  0  0
   15.4597    6.3175   -1.6902 H   0  0  0  0  0  0  0  0  0  0  0  0
   15.5270    4.2016   -1.3366 C   0  0  0  0  0  0  0  0  0  0  0  0
   15.5024    3.8726   -2.6818 C   0  0  0  0  0  0  0  0  0  0  0  0
   15.4340    4.6676   -3.4224 H   0  0  0  0  0  0  0  0  0  0  0  0
   15.6154    2.5232   -3.0305 C   0  0  0  0  0  0  0  0  0  0  0  0
   15.6216    2.2128   -4.0711 H   0  0  0  0  0  0  0  0  0  0  0  0
   15.3291   -0.8718   -1.4863 C   0  0  0  0  0  0  0  0  0  0  0  0
   14.8960   -0.5583   -0.5387 H   0  0  0  0  0  0  0  0  0  0  0  0
   13.3005   -3.0342   -0.5995 C   0  0  0  0  0  0  0  0  0  0  0  0
   12.4350   -3.1186   -1.4698 O   0  0  0  0  0  0  0  0  0  0  0  0
   13.0258   -2.6805    0.7092 N   0  0  0  0  0  0  0  0  0  0  0  0
   11.7216   -2.3135    1.2708 C   0  0  0  0  0  0  0  0  0  0  0  0
   10.9177   -2.4758    0.5415 H   0  0  0  0  0  0  0  0  0  0  0  0
   11.5032   -2.9207    2.1591 H   0  0  0  0  0  0  0  0  0  0  0  0
   11.7100   -1.2542    1.5595 H   0  0  0  0  0  0  0  0  0  0  0  0
   14.2346   -2.6263    1.3640 C   0  0  0  0  0  0  0  0  0  0  0  0
   14.4062   -2.3133    2.6820 N   0  0  0  0  0  0  0  0  0  0  0  0
   13.5913   -2.1226    3.2625 H   0  0  0  0  0  0  0  0  0  0  0  0
   15.3412   -2.3374    3.0815 H   0  0  0  0  0  0  0  0  0  0  0  0
   15.2379   -2.9112    0.6023 N   0  0  0  0  0  4  0  0  0  0  0  0
   16.2084   -2.9376    0.9247 H   0  0  0  0  0  0  0  0  0  0  0  0
   14.3127   -5.5705   -1.7678 C   0  0  0  0  0  0  0  0  0  0  0  0
   13.3595   -5.1997   -2.1338 H   0  0  0  0  0  0  0  0  0  0  0  0
   14.6471   -6.9197   -1.9666 C   0  0  0  0  0  0  0  0  0  0  0  0
   13.9638   -7.5853   -2.4871 H   0  0  0  0  0  0  0  0  0  0  0  0
  1  2  1  0
  2  3  2  0
  3  4  1  0
  3  5  1  0
  5  6  1  0
  5  7  2  0
  7  8  1  0
  8  9  1  0
  9 10  2  0
 10 11  1  0
 10 12  1  0
 12 13  1  0
 12 14  2  0
 14 15  1  0
 14 16  1  0
 16 17  1  0
 17 18  2  0
 18 19  1  0
 19 20  2  0
 20 21  1  0
 20 22  1  0
 22 23  1  0
 22 24  2  0
 24 25  1  0
 24 26  1  0
 26 27  1  0
 26 28  2  0
 28 29  1  0
 29 30  1  0
 29 31  2  0
 31 32  1  0
 16 33  2  0
 33 34  1  0
  8 35  1  0
 35 36  2  0
 35 37  1  0
 37 38  1  0
 38 39  1  0
 38 40  1  0
 38 41  1  0
 37 42  1  0
 42 43  1  0
 43 44  1  0
 43 45  1  0
 42 46  2  0
 46 47  1  0
  7 48  1  0
 48 49  1  0
 48 50  2  0
 50 51  1  0
 50  2  1  0
 46  8  1  0
 33  9  1  0
 31 17  1  0
 28 19  1  0
M  CHG  1  46   1
M  END
>  <score>  (38) 
6.19942

$$$$

     RDKit          3D

 49 52  0  0  0  0  0  0  0  0999 V2000
   16.1248   -8.4891   -1.6110 H   0  0  0  0  0  0  0  0  0  0  0  0
   15.8533   -7.4447   -1.4708 C   0  0  0  0  0  0  0  0  0  0  0  0
   16.7270   -6.5862   -0.8002 C   0  0  0  0  0  0  0  0  0  0  0  0
   17.6743   -6.9552   -0.4185 H   0  0  0  0  0  0  0  0  0  0  0  0
   16.3883   -5.2416   -0.6106 C   0  0  0  0  0  0  0  0  0  0  0  0
   17.0679   -4.5922   -0.0669 H   0  0  0  0  0  0  0  0  0  0  0  0
   15.1693   -4.7198   -1.0727 C   0  0  0  0  0  0  0  0  0  0  0  0
   14.8124   -3.2534   -0.7834 C   0  0  0  0  0  0  0  0  0  0  0  0
   15.3915   -2.2488   -1.7802 C   0  0  0  0  0  0  0  0  0  0  0  0
   15.9456   -2.6422   -3.0090 C   0  0  0  0  0  0  0  0  0  0  0  0
   16.0046   -3.6939   -3.2641 H   0  0  0  0  0  0  0  0  0  0  0  0
   16.4235   -1.6910   -3.9208 C   0  0  0  0  0  0  0  0  0  0  0  0
   16.8564   -2.0041   -4.8652 H   0  0  0  0  0  0  0  0  0  0  0  0
   16.3433   -0.3283   -3.6270 C   0  0  0  0  0  0  0  0  0  0  0  0
   16.6950    0.4062   -4.3474 H   0  0  0  0  0  0  0  0  0  0  0  0
   15.7875    0.0936   -2.4142 C   0  0  0  0  0  0  0  0  0  0  0  0
   15.6500    1.5683   -2.1067 C   0  0  0  0  0  0  0  0  0  0  0  0
   15.8321    1.7554   -1.0438 H   0  0  0  0  0  0  0  0  0  0  0  0
   16.3947    2.1498   -2.6594 H   0  0  0  0  0  0  0  0  0  0  0  0
   14.2645    2.0354   -2.4772 C   0  0  0  0  0  0  0  0  0  0  0  0
   13.9870    2.4779   -3.7764 C   0  0  0  0  0  0  0  0  0  0  0  0
   14.7789    2.4937   -4.5169 H   0  0  0  0  0  0  0  0  0  0  0  0
   12.6903    2.8735   -4.1305 C   0  0  0  0  0  0  0  0  0  0  0  0
   12.4751    3.2065   -5.1401 H   0  0  0  0  0  0  0  0  0  0  0  0
   11.6555    2.8300   -3.1912 C   0  0  0  0  0  0  0  0  0  0  0  0
   10.3998    3.2047   -3.5355 F   0  0  0  0  0  0  0  0  0  0  0  0
   11.9309    2.3909   -1.8930 C   0  0  0  0  0  0  0  0  0  0  0  0
   11.1282    2.3496   -1.1652 H   0  0  0  0  0  0  0  0  0  0  0  0
   13.2276    1.9987   -1.5367 C   0  0  0  0  0  0  0  0  0  0  0  0
   13.4284    1.6508   -0.5295 H   0  0  0  0  0  0  0  0  0  0  0  0
   15.3192   -0.8697   -1.5065 C   0  0  0  0  0  0  0  0  0  0  0  0
   14.8896   -0.5305   -0.5696 H   0  0  0  0  0  0  0  0  0  0  0  0
   13.2988   -3.0219   -0.6070 C   0  0  0  0  0  0  0  0  0  0  0  0
   12.4278   -3.0827   -1.4728 O   0  0  0  0  0  0  0  0  0  0  0  0
   13.0224   -2.6718    0.7008 N   0  0  0  0  0  0  0  0  0  0  0  0
   11.7210   -2.3133    1.2611 C   0  0  0  0  0  0  0  0  0  0  0  0
   11.5042   -2.9129    2.1475 H   0  0  0  0  0  0  0  0  0  0  0  0
   11.6908   -1.2611    1.5540 H   0  0  0  0  0  0  0  0  0  0  0  0
   10.9136   -2.4795    0.5427 H   0  0  0  0  0  0  0  0  0  0  0  0
   14.2235   -2.6305    1.3659 C   0  0  0  0  0  0  0  0  0  0  0  0
   14.3934   -2.3355    2.6864 N   0  0  0  0  0  0  0  0  0  0  0  0
   13.5810   -2.1266    3.2630 H   0  0  0  0  0  0  0  0  0  0  0  0
   15.3282   -2.3566    3.0936 H   0  0  0  0  0  0  0  0  0  0  0  0
   15.2178   -2.9069    0.5925 N   0  0  0  0  0  4  0  0  0  0  0  0
   16.1881   -2.9037    0.9018 H   0  0  0  0  0  0  0  0  0  0  0  0
   14.3011   -5.5928   -1.7674 C   0  0  0  0  0  0  0  0  0  0  0  0
   13.3525   -5.2419   -2.1644 H   0  0  0  0  0  0  0  0  0  0  0  0
   14.6428   -6.9443   -1.9611 C   0  0  0  0  0  0  0  0  0  0  0  0
   13.9732   -7.6185   -2.4884 H   0  0  0  0  0  0  0  0  0  0  0  0
  1  2  1  0
  2  3  2  0
  3  4  1  0
  3  5  1  0
  5  6  1  0
  5  7  2  0
  7  8  1  0
  8  9  1  0
  9 10  2  0
 10 11  1  0
 10 12  1  0
 12 13  1  0
 12 14  2  0
 14 15  1  0
 14 16  1  0
 16 17  1  0
 17 18  1  0
 17 19  1  0
 17 20  1  0
 20 21  2  0
 21 22  1  0
 21 23  1  0
 23 24  1  0
 23 25  2  0
 25 26  1  0
 25 27  1  0
 27 28  1  0
 27 29  2  0
 29 30  1  0
 16 31  2  0
 31 32  1  0
  8 33  1  0
 33 34  2  0
 33 35  1  0
 35 36  1  0
 36 37  1  0
 36 38  1  0
 36 39  1  0
 35 40  1  0
 40 41  1  0
 41 42  1  0
 41 43  1  0
 40 44  2  0
 44 45  1  0
  7 46  1  0
 46 47  1  0
 46 48  2  0
 48 49  1  0
 48  2  1  0
 44  8  1  0
 31  9  1  0
 29 20  1  0
M  CHG  1  44   1
M  END
>  <score>  (39) 
6.19426

$$$$

     RDKit          3D

 52 56  0  0  0  0  0  0  0  0999 V2000
   16.0998   -8.4246   -1.6636 H   0  0  0  0  0  0  0  0  0  0  0  0
   15.8591   -7.3810   -1.4922 C   0  0  0  0  0  0  0  0  0  0  0  0
   16.7605   -6.5617   -0.8037 C   0  0  0  0  0  0  0  0  0  0  0  0
   17.7031   -6.9560   -0.4376 H   0  0  0  0  0  0  0  0  0  0  0  0
   16.4466   -5.2223   -0.5731 C   0  0  0  0  0  0  0  0  0  0  0  0
   17.1505   -4.5840   -0.0444 H   0  0  0  0  0  0  0  0  0  0  0  0
   15.2231   -4.6955   -1.0086 C   0  0  0  0  0  0  0  0  0  0  0  0
   14.8673   -3.2559   -0.7202 C   0  0  0  0  0  0  0  0  0  0  0  0
   15.4409   -2.3087   -1.7613 C   0  0  0  0  0  0  0  0  0  0  0  0
   15.9588   -2.7376   -2.9987 C   0  0  0  0  0  0  0  0  0  0  0  0
   15.9962   -3.7956   -3.2337 H   0  0  0  0  0  0  0  0  0  0  0  0
   16.4190   -1.8108   -3.9457 C   0  0  0  0  0  0  0  0  0  0  0  0
   16.8206   -2.1348   -4.8984 H   0  0  0  0  0  0  0  0  0  0  0  0
   16.3335   -0.4437   -3.6827 C   0  0  0  0  0  0  0  0  0  0  0  0
   16.6761    0.2870   -4.4107 H   0  0  0  0  0  0  0  0  0  0  0  0
   15.7826   -0.0083   -2.4742 C   0  0  0  0  0  0  0  0  0  0  0  0
   15.5584    1.3955   -2.1915 C   0  0  0  0  0  0  0  0  0  0  0  0
   15.3744    2.3223   -3.2251 C   0  0  0  0  0  0  0  0  0  0  0  0
   15.4360    1.9882   -4.2595 H   0  0  0  0  0  0  0  0  0  0  0  0
   15.1217    3.6629   -2.9103 C   0  0  0  0  0  0  0  0  0  0  0  0
   14.9561    4.3990   -3.6880 H   0  0  0  0  0  0  0  0  0  0  0  0
   15.1218    4.0894   -1.5778 C   0  0  0  0  0  0  0  0  0  0  0  0
   15.3024    3.1372   -0.5443 C   0  0  0  0  0  0  0  0  0  0  0  0
   15.4998    1.8104   -0.8590 C   0  0  0  0  0  0  0  0  0  0  0  0
   15.6688    1.1076   -0.0478 H   0  0  0  0  0  0  0  0  0  0  0  0
   15.3726    3.4756    0.7770 O   0  0  0  0  0  0  0  0  0  0  0  0
   15.9465    4.7687    0.8950 C   0  0  0  0  0  0  0  0  0  0  0  0
   15.9914    5.0580    1.9446 H   0  0  0  0  0  0  0  0  0  0  0  0
   16.9600    4.7128    0.5041 H   0  0  0  0  0  0  0  0  0  0  0  0
   15.1410    5.7825    0.0774 C   0  0  0  0  0  0  0  0  0  0  0  0
   14.1435    5.8265    0.5180 H   0  0  0  0  0  0  0  0  0  0  0  0
   15.6246    6.7621    0.1395 H   0  0  0  0  0  0  0  0  0  0  0  0
   15.0159    5.4334   -1.3119 O   0  0  0  0  0  0  0  0  0  0  0  0
   15.3733   -0.9391   -1.5196 C   0  0  0  0  0  0  0  0  0  0  0  0
   14.9520   -0.5783   -0.5850 H   0  0  0  0  0  0  0  0  0  0  0  0
   13.3474   -3.0456   -0.5534 C   0  0  0  0  0  0  0  0  0  0  0  0
   12.4744   -3.2128   -1.4049 O   0  0  0  0  0  0  0  0  0  0  0  0
   13.0741   -2.6519    0.7423 N   0  0  0  0  0  0  0  0  0  0  0  0
   11.7648   -2.3023    1.2952 C   0  0  0  0  0  0  0  0  0  0  0  0
   11.7396   -1.2426    1.5751 H   0  0  0  0  0  0  0  0  0  0  0  0
   10.9681   -2.4792    0.5625 H   0  0  0  0  0  0  0  0  0  0  0  0
   11.5449   -2.9048    2.1849 H   0  0  0  0  0  0  0  0  0  0  0  0
   14.2800   -2.5776    1.4045 C   0  0  0  0  0  0  0  0  0  0  0  0
   14.4544   -2.2249    2.7120 N   0  0  0  0  0  0  0  0  0  0  0  0
   15.3900   -2.2808    3.1121 H   0  0  0  0  0  0  0  0  0  0  0  0
   13.6410   -2.1036    3.3130 H   0  0  0  0  0  0  0  0  0  0  0  0
   15.2810   -2.8912    0.6529 N   0  0  0  0  0  4  0  0  0  0  0  0
   16.2401   -2.9765    0.9946 H   0  0  0  0  0  0  0  0  0  0  0  0
   14.3384   -5.5138   -1.7282 C   0  0  0  0  0  0  0  0  0  0  0  0
   13.4009   -5.1083   -2.0983 H   0  0  0  0  0  0  0  0  0  0  0  0
   14.6521   -6.8535   -1.9644 C   0  0  0  0  0  0  0  0  0  0  0  0
   13.9522   -7.4784   -2.5100 H   0  0  0  0  0  0  0  0  0  0  0  0
  1  2  1  0
  2  3  2  0
  3  4  1  0
  3  5  1  0
  5  6  1  0
  5  7  2  0
  7  8  1  0
  8  9  1  0
  9 10  2  0
 10 11  1  0
 10 12  1  0
 12 13  1  0
 12 14  2  0
 14 15  1  0
 14 16  1  0
 16 17  1  0
 17 18  2  0
 18 19  1  0
 18 20  1  0
 20 21  1  0
 20 22  2  0
 22 23  1  0
 23 24  2  0
 24 25  1  0
 23 26  1  0
 26 27  1  0
 27 28  1  0
 27 29  1  0
 27 30  1  0
 30 31  1  0
 30 32  1  0
 30 33  1  0
 16 34  2  0
 34 35  1  0
  8 36  1  0
 36 37  2  0
 36 38  1  0
 38 39  1  0
 39 40  1  0
 39 41  1  0
 39 42  1  0
 38 43  1  0
 43 44  1  0
 44 45  1  0
 44 46  1  0
 43 47  2  0
 47 48  1  0
  7 49  1  0
 49 50  1  0
 49 51  2  0
 51 52  1  0
 51  2  1  0
 47  8  1  0
 34  9  1  0
 24 17  1  0
 33 22  1  0
M  CHG  1  47   1
M  END
>  <score>  (40) 
6.19344

$$$$

     RDKit          3D

 50 54  0  0  0  0  0  0  0  0999 V2000
   16.1264   -8.4899   -1.6108 H   0  0  0  0  0  0  0  0  0  0  0  0
   15.8539   -7.4464   -1.4697 C   0  0  0  0  0  0  0  0  0  0  0  0
   16.7262   -6.5878   -0.7983 C   0  0  0  0  0  0  0  0  0  0  0  0
   17.6756   -6.9551   -0.4198 H   0  0  0  0  0  0  0  0  0  0  0  0
   16.3851   -5.2441   -0.6090 C   0  0  0  0  0  0  0  0  0  0  0  0
   17.0689   -4.5956   -0.0698 H   0  0  0  0  0  0  0  0  0  0  0  0
   15.1654   -4.7214   -1.0723 C   0  0  0  0  0  0  0  0  0  0  0  0
   14.8083   -3.2517   -0.7857 C   0  0  0  0  0  0  0  0  0  0  0  0
   15.3855   -2.2442   -1.7846 C   0  0  0  0  0  0  0  0  0  0  0  0
   15.9418   -2.6411   -3.0121 C   0  0  0  0  0  0  0  0  0  0  0  0
   16.0056   -3.6937   -3.2689 H   0  0  0  0  0  0  0  0  0  0  0  0
   16.4236   -1.6907   -3.9209 C   0  0  0  0  0  0  0  0  0  0  0  0
   16.8568   -2.0062   -4.8640 H   0  0  0  0  0  0  0  0  0  0  0  0
   16.3530   -0.3266   -3.6225 C   0  0  0  0  0  0  0  0  0  0  0  0
   16.7051    0.4043   -4.3443 H   0  0  0  0  0  0  0  0  0  0  0  0
   15.8006    0.1109   -2.4093 C   0  0  0  0  0  0  0  0  0  0  0  0
   15.7347    1.5606   -2.0915 C   0  0  0  0  0  0  0  0  0  0  0  0
   16.8446    2.4050   -2.2936 C   0  0  0  0  0  0  0  0  0  0  0  0
   17.7686    1.9892   -2.6773 H   0  0  0  0  0  0  0  0  0  0  0  0
   16.7921    3.7766   -1.9807 C   0  0  0  0  0  0  0  0  0  0  0  0
   17.6579    4.4056   -2.1278 H   0  0  0  0  0  0  0  0  0  0  0  0
   15.6248    4.3498   -1.4681 C   0  0  0  0  0  0  0  0  0  0  0  0
   15.5362    5.4037   -1.2146 H   0  0  0  0  0  0  0  0  0  0  0  0
   14.5257    3.5228   -1.2856 C   0  0  0  0  0  0  0  0  0  0  0  0
   14.5663    2.1630   -1.5872 C   0  0  0  0  0  0  0  0  0  0  0  0
   13.2336    1.6427   -1.3091 C   0  0  0  0  0  0  0  0  0  0  0  0
   12.9298    0.6108   -1.4628 H   0  0  0  0  0  0  0  0  0  0  0  0
   12.4520    2.6818   -0.8435 C   0  0  0  0  0  0  0  0  0  0  0  0
   11.4000    2.6201   -0.5554 H   0  0  0  0  0  0  0  0  0  0  0  0
   13.2556    3.8226   -0.8248 N   0  0  0  0  0  0  0  0  0  0  0  0
   12.9577    4.7574   -0.5451 H   0  0  0  0  0  0  0  0  0  0  0  0
   15.3173   -0.8605   -1.5094 C   0  0  0  0  0  0  0  0  0  0  0  0
   14.9095   -0.5280   -0.5596 H   0  0  0  0  0  0  0  0  0  0  0  0
   13.2952   -3.0208   -0.6090 C   0  0  0  0  0  0  0  0  0  0  0  0
   12.4248   -3.0803   -1.4757 O   0  0  0  0  0  0  0  0  0  0  0  0
   13.0207   -2.6705    0.6991 N   0  0  0  0  0  0  0  0  0  0  0  0
   11.7195   -2.3128    1.2613 C   0  0  0  0  0  0  0  0  0  0  0  0
   10.9146   -2.4832    0.5424 H   0  0  0  0  0  0  0  0  0  0  0  0
   11.6903   -1.2591    1.5510 H   0  0  0  0  0  0  0  0  0  0  0  0
   11.5050   -2.9122    2.1494 H   0  0  0  0  0  0  0  0  0  0  0  0
   14.2236   -2.6302    1.3661 C   0  0  0  0  0  0  0  0  0  0  0  0
   14.3917   -2.3385    2.6894 N   0  0  0  0  0  0  0  0  0  0  0  0
   15.3259   -2.3571    3.0958 H   0  0  0  0  0  0  0  0  0  0  0  0
   13.5805   -2.1253    3.2657 H   0  0  0  0  0  0  0  0  0  0  0  0
   15.2179   -2.9065    0.5913 N   0  0  0  0  0  4  0  0  0  0  0  0
   16.1899   -2.8965    0.8968 H   0  0  0  0  0  0  0  0  0  0  0  0
   14.2996   -5.5968   -1.7682 C   0  0  0  0  0  0  0  0  0  0  0  0
   13.3522   -5.2466   -2.1690 H   0  0  0  0  0  0  0  0  0  0  0  0
   14.6427   -6.9481   -1.9604 C   0  0  0  0  0  0  0  0  0  0  0  0
   13.9733   -7.6219   -2.4889 H   0  0  0  0  0  0  0  0  0  0  0  0
  1  2  1  0
  2  3  2  0
  3  4  1  0
  3  5  1  0
  5  6  1  0
  5  7  2  0
  7  8  1  0
  8  9  1  0
  9 10  2  0
 10 11  1  0
 10 12  1  0
 12 13  1  0
 12 14  2  0
 14 15  1  0
 14 16  1  0
 16 17  1  0
 17 18  2  0
 18 19  1  0
 18 20  1  0
 20 21  1  0
 20 22  2  0
 22 23  1  0
 22 24  1  0
 24 25  2  0
 25 26  1  0
 26 27  1  0
 26 28  2  0
 28 29  1  0
 28 30  1  0
 30 31  1  0
 16 32  2  0
 32 33  1  0
  8 34  1  0
 34 35  2  0
 34 36  1  0
 36 37  1  0
 37 38  1  0
 37 39  1  0
 37 40  1  0
 36 41  1  0
 41 42  1  0
 42 43  1  0
 42 44  1  0
 41 45  2  0
 45 46  1  0
  7 47  1  0
 47 48  1  0
 47 49  2  0
 49 50  1  0
 49  2  1  0
 45  8  1  0
 32  9  1  0
 25 17  1  0
 30 24  1  0
M  CHG  1  45   1
M  END
>  <score>  (41) 
6.18686

$$$$

     RDKit          3D

 49 52  0  0  0  0  0  0  0  0999 V2000
   16.1737   -8.3952   -1.7515 H   0  0  0  0  0  0  0  0  0  0  0  0
   15.9271   -7.3578   -1.5473 C   0  0  0  0  0  0  0  0  0  0  0  0
   16.8139   -6.5488   -0.8284 C   0  0  0  0  0  0  0  0  0  0  0  0
   17.7580   -6.9549   -0.4781 H   0  0  0  0  0  0  0  0  0  0  0  0
   16.4803   -5.2184   -0.5445 C   0  0  0  0  0  0  0  0  0  0  0  0
   17.1722   -4.6015    0.0222 H   0  0  0  0  0  0  0  0  0  0  0  0
   15.2506   -4.6840   -0.9664 C   0  0  0  0  0  0  0  0  0  0  0  0
   14.8294   -3.2597   -0.6162 C   0  0  0  0  0  0  0  0  0  0  0  0
   15.2091   -2.2284   -1.6793 C   0  0  0  0  0  0  0  0  0  0  0  0
   16.1068   -2.5134   -2.7251 C   0  0  0  0  0  0  0  0  0  0  0  0
   16.6064   -3.4763   -2.7658 H   0  0  0  0  0  0  0  0  0  0  0  0
   16.3741   -1.5607   -3.7181 C   0  0  0  0  0  0  0  0  0  0  0  0
   17.0691   -1.7752   -4.5258 H   0  0  0  0  0  0  0  0  0  0  0  0
   15.7483   -0.3123   -3.6749 C   0  0  0  0  0  0  0  0  0  0  0  0
   15.9298    0.4262   -4.4466 H   0  0  0  0  0  0  0  0  0  0  0  0
   14.8800    0.0141   -2.6336 C   0  0  0  0  0  0  0  0  0  0  0  0
   14.2718    1.3973   -2.5721 C   0  0  0  0  0  0  0  0  0  0  0  0
   13.2361    1.3410   -2.2349 H   0  0  0  0  0  0  0  0  0  0  0  0
   14.2726    1.8645   -3.5646 H   0  0  0  0  0  0  0  0  0  0  0  0
   15.0635    2.2417   -1.6155 C   0  0  0  0  0  0  0  0  0  0  0  0
   16.3389    2.6933   -1.9670 C   0  0  0  0  0  0  0  0  0  0  0  0
   16.7277    2.4779   -2.9559 H   0  0  0  0  0  0  0  0  0  0  0  0
   17.1132    3.4205   -1.0582 C   0  0  0  0  0  0  0  0  0  0  0  0
   18.0939    3.7915   -1.3523 H   0  0  0  0  0  0  0  0  0  0  0  0
   16.6261    3.6351    0.2393 C   0  0  0  0  0  0  0  0  0  0  0  0
   17.2445    4.1436    0.9706 H   0  0  0  0  0  0  0  0  0  0  0  0
   15.3353    3.2172    0.5961 C   0  0  0  0  0  0  0  0  0  0  0  0
   14.8491    3.4480    1.8405 F   0  0  0  0  0  0  0  0  0  0  0  0
   14.5499    2.5592   -0.3558 C   0  0  0  0  0  0  0  0  0  0  0  0
   13.5350    2.2597   -0.1128 H   0  0  0  0  0  0  0  0  0  0  0  0
   14.6157   -0.9482   -1.6486 C   0  0  0  0  0  0  0  0  0  0  0  0
   13.9296   -0.6925   -0.8474 H   0  0  0  0  0  0  0  0  0  0  0  0
   13.3108   -3.1759   -0.3616 C   0  0  0  0  0  0  0  0  0  0  0  0
   12.4121   -3.3941   -1.1739 O   0  0  0  0  0  0  0  0  0  0  0  0
   13.0739   -2.7223    0.9170 N   0  0  0  0  0  0  0  0  0  0  0  0
   11.7847   -2.2833    1.4520 C   0  0  0  0  0  0  0  0  0  0  0  0
   10.9854   -2.4476    0.7199 H   0  0  0  0  0  0  0  0  0  0  0  0
   11.8088   -1.2136    1.6872 H   0  0  0  0  0  0  0  0  0  0  0  0
   11.5319   -2.8372    2.3625 H   0  0  0  0  0  0  0  0  0  0  0  0
   14.3016   -2.5597    1.5194 C   0  0  0  0  0  0  0  0  0  0  0  0
   14.4828   -2.1355    2.8013 N   0  0  0  0  0  0  0  0  0  0  0  0
   15.4095   -2.2254    3.2142 H   0  0  0  0  0  0  0  0  0  0  0  0
   13.6687   -2.0653    3.4098 H   0  0  0  0  0  0  0  0  0  0  0  0
   15.2871   -2.8561    0.7325 N   0  0  0  0  0  4  0  0  0  0  0  0
   16.2661   -2.8535    1.0248 H   0  0  0  0  0  0  0  0  0  0  0  0
   14.3843   -5.5013   -1.7142 C   0  0  0  0  0  0  0  0  0  0  0  0
   13.4363   -5.1027   -2.0633 H   0  0  0  0  0  0  0  0  0  0  0  0
   14.7139   -6.8297   -1.9967 C   0  0  0  0  0  0  0  0  0  0  0  0
   14.0185   -7.4485   -2.5552 H   0  0  0  0  0  0  0  0  0  0  0  0
  1  2  1  0
  2  3  2  0
  3  4  1  0
  3  5  1  0
  5  6  1  0
  5  7  2  0
  7  8  1  0
  8  9  1  0
  9 10  2  0
 10 11  1  0
 10 12  1  0
 12 13  1  0
 12 14  2  0
 14 15  1  0
 14 16  1  0
 16 17  1  0
 17 18  1  0
 17 19  1  0
 17 20  1  0
 20 21  2  0
 21 22  1  0
 21 23  1  0
 23 24  1  0
 23 25  2  0
 25 26  1  0
 25 27  1  0
 27 28  1  0
 27 29  2  0
 29 30  1  0
 16 31  2  0
 31 32  1  0
  8 33  1  0
 33 34  2  0
 33 35  1  0
 35 36  1  0
 36 37  1  0
 36 38  1  0
 36 39  1  0
 35 40  1  0
 40 41  1  0
 41 42  1  0
 41 43  1  0
 40 44  2  0
 44 45  1  0
  7 46  1  0
 46 47  1  0
 46 48  2  0
 48 49  1  0
 48  2  1  0
 44  8  1  0
 31  9  1  0
 29 20  1  0
M  CHG  1  44   1
M  END
>  <score>  (42) 
6.18239

$$$$

     RDKit          3D

 52 55  0  0  0  0  0  0  0  0999 V2000
   16.0975   -8.4326   -1.6605 H   0  0  0  0  0  0  0  0  0  0  0  0
   15.8548   -7.3853   -1.5124 C   0  0  0  0  0  0  0  0  0  0  0  0
   16.7579   -6.5612   -0.8315 C   0  0  0  0  0  0  0  0  0  0  0  0
   17.6920   -6.9490   -0.4337 H   0  0  0  0  0  0  0  0  0  0  0  0
   16.4446   -5.2200   -0.6259 C   0  0  0  0  0  0  0  0  0  0  0  0
   17.1310   -4.5771   -0.0801 H   0  0  0  0  0  0  0  0  0  0  0  0
   15.2228   -4.6941   -1.0665 C   0  0  0  0  0  0  0  0  0  0  0  0
   14.8751   -3.2607   -0.7478 C   0  0  0  0  0  0  0  0  0  0  0  0
   15.4211   -2.2809   -1.7739 C   0  0  0  0  0  0  0  0  0  0  0  0
   15.9864   -2.6853   -2.9975 C   0  0  0  0  0  0  0  0  0  0  0  0
   16.0294   -3.7404   -3.2489 H   0  0  0  0  0  0  0  0  0  0  0  0
   16.4825   -1.7374   -3.9033 C   0  0  0  0  0  0  0  0  0  0  0  0
   16.9201   -2.0491   -4.8462 H   0  0  0  0  0  0  0  0  0  0  0  0
   16.4065   -0.3753   -3.6008 C   0  0  0  0  0  0  0  0  0  0  0  0
   16.7963    0.3615   -4.2975 H   0  0  0  0  0  0  0  0  0  0  0  0
   15.7863    0.0451   -2.4187 C   0  0  0  0  0  0  0  0  0  0  0  0
   15.6288    1.4604   -2.1097 C   0  0  0  0  0  0  0  0  0  0  0  0
   14.4814    1.8930   -1.4362 C   0  0  0  0  0  0  0  0  0  0  0  0
   13.7343    1.1683   -1.1328 H   0  0  0  0  0  0  0  0  0  0  0  0
   14.2930    3.2434   -1.1603 C   0  0  0  0  0  0  0  0  0  0  0  0
   13.4066    3.5727   -0.6267 H   0  0  0  0  0  0  0  0  0  0  0  0
   15.2737    4.1688   -1.5283 C   0  0  0  0  0  0  0  0  0  0  0  0
   15.1433    5.5935   -1.0960 C   0  0  0  0  0  0  0  0  0  0  0  0
   15.7911    6.2240   -1.6977 H   0  0  0  0  0  0  0  0  0  0  0  0
   14.1228    5.9516   -1.2431 H   0  0  0  0  0  0  0  0  0  0  0  0
   15.5342    5.6840    0.3739 C   0  0  0  0  0  0  0  0  0  0  0  0
   16.3764    5.0190    0.5947 H   0  0  0  0  0  0  0  0  0  0  0  0
   14.6779    5.3977    0.9879 H   0  0  0  0  0  0  0  0  0  0  0  0
   15.8304    6.6994    0.6380 H   0  0  0  0  0  0  0  0  0  0  0  0
   16.4302    3.7459   -2.1943 C   0  0  0  0  0  0  0  0  0  0  0  0
   17.2048    4.4656   -2.4464 H   0  0  0  0  0  0  0  0  0  0  0  0
   16.6018    2.3930   -2.4860 C   0  0  0  0  0  0  0  0  0  0  0  0
   17.5050    2.0531   -2.9766 H   0  0  0  0  0  0  0  0  0  0  0  0
   15.3015   -0.9103   -1.5221 C   0  0  0  0  0  0  0  0  0  0  0  0
   14.8343   -0.5711   -0.6024 H   0  0  0  0  0  0  0  0  0  0  0  0
   13.3699   -3.0169   -0.5140 C   0  0  0  0  0  0  0  0  0  0  0  0
   12.4525   -3.1359   -1.3247 O   0  0  0  0  0  0  0  0  0  0  0  0
   13.1780   -2.6204    0.7905 N   0  0  0  0  0  0  0  0  0  0  0  0
   11.9005   -2.3022    1.4128 C   0  0  0  0  0  0  0  0  0  0  0  0
   11.0930   -2.8564    0.9217 H   0  0  0  0  0  0  0  0  0  0  0  0
   11.7018   -1.2303    1.3224 H   0  0  0  0  0  0  0  0  0  0  0  0
   11.8944   -2.5663    2.4754 H   0  0  0  0  0  0  0  0  0  0  0  0
   14.3964   -2.6812    1.4201 C   0  0  0  0  0  0  0  0  0  0  0  0
   14.5846   -2.4690    2.7550 N   0  0  0  0  0  0  0  0  0  0  0  0
   13.9211   -1.8617    3.2282 H   0  0  0  0  0  0  0  0  0  0  0  0
   15.5468   -2.4906    3.0864 H   0  0  0  0  0  0  0  0  0  0  0  0
   15.3646   -2.9710    0.6169 N   0  0  0  0  0  4  0  0  0  0  0  0
   16.3013   -3.2109    0.9480 H   0  0  0  0  0  0  0  0  0  0  0  0
   14.3316   -5.5156   -1.7676 C   0  0  0  0  0  0  0  0  0  0  0  0
   13.3844   -5.1129   -2.1129 H   0  0  0  0  0  0  0  0  0  0  0  0
   14.6444   -6.8603   -1.9872 C   0  0  0  0  0  0  0  0  0  0  0  0
   13.9353   -7.4990   -2.5040 H   0  0  0  0  0  0  0  0  0  0  0  0
  1  2  1  0
  2  3  2  0
  3  4  1  0
  3  5  1  0
  5  6  1  0
  5  7  2  0
  7  8  1  0
  8  9  1  0
  9 10  2  0
 10 11  1  0
 10 12  1  0
 12 13  1  0
 12 14  2  0
 14 15  1  0
 14 16  1  0
 16 17  1  0
 17 18  2  0
 18 19  1  0
 18 20  1  0
 20 21  1  0
 20 22  2  0
 22 23  1  0
 23 24  1  0
 23 25  1  0
 23 26  1  0
 26 27  1  0
 26 28  1  0
 26 29  1  0
 22 30  1  0
 30 31  1  0
 30 32  2  0
 32 33  1  0
 16 34  2  0
 34 35  1  0
  8 36  1  0
 36 37  2  0
 36 38  1  0
 38 39  1  0
 39 40  1  0
 39 41  1  0
 39 42  1  0
 38 43  1  0
 43 44  1  0
 44 45  1  0
 44 46  1  0
 43 47  2  0
 47 48  1  0
  7 49  1  0
 49 50  1  0
 49 51  2  0
 51 52  1  0
 51  2  1  0
 47  8  1  0
 34  9  1  0
 32 17  1  0
M  CHG  1  47   1
M  END
>  <score>  (43) 
6.17455

$$$$

     RDKit          3D

 52 55  0  0  0  0  0  0  0  0999 V2000
   16.2341   -8.8760   -1.4992 H   0  0  0  0  0  0  0  0  0  0  0  0
   15.9534   -7.8409   -1.3222 C   0  0  0  0  0  0  0  0  0  0  0  0
   16.8257   -6.9862   -0.6392 C   0  0  0  0  0  0  0  0  0  0  0  0
   17.7953   -7.3434   -0.3035 H   0  0  0  0  0  0  0  0  0  0  0  0
   16.4507   -5.6634   -0.3879 C   0  0  0  0  0  0  0  0  0  0  0  0
   17.1363   -5.0007    0.1339 H   0  0  0  0  0  0  0  0  0  0  0  0
   15.2023   -5.1864   -0.8133 C   0  0  0  0  0  0  0  0  0  0  0  0
   14.8051   -3.7521   -0.5896 C   0  0  0  0  0  0  0  0  0  0  0  0
   15.2583   -2.8987   -1.7561 C   0  0  0  0  0  0  0  0  0  0  0  0
   15.2828   -3.3250   -3.0948 C   0  0  0  0  0  0  0  0  0  0  0  0
   15.0030   -4.3434   -3.3500 H   0  0  0  0  0  0  0  0  0  0  0  0
   15.6350   -2.4227   -4.1123 C   0  0  0  0  0  0  0  0  0  0  0  0
   15.6528   -2.7576   -5.1456 H   0  0  0  0  0  0  0  0  0  0  0  0
   15.9265   -1.0819   -3.7997 C   0  0  0  0  0  0  0  0  0  0  0  0
   16.1557   -0.3806   -4.5970 H   0  0  0  0  0  0  0  0  0  0  0  0
   15.8854   -0.6539   -2.4612 C   0  0  0  0  0  0  0  0  0  0  0  0
   15.9754    0.7301   -1.9809 C   0  0  0  0  0  0  0  0  0  0  0  0
   15.5382    1.8099   -2.7519 C   0  0  0  0  0  0  0  0  0  0  0  0
   15.2966    1.6635   -3.7975 H   0  0  0  0  0  0  0  0  0  0  0  0
   15.3236    3.0567   -2.1548 C   0  0  0  0  0  0  0  0  0  0  0  0
   14.9567    3.8613   -2.7844 H   0  0  0  0  0  0  0  0  0  0  0  0
   15.5390    3.2316   -0.7739 C   0  0  0  0  0  0  0  0  0  0  0  0
   14.9910    4.7267    0.1001 S   0  0  0  0  0  0  0  0  0  0  0  0
   13.6499    4.5440    0.6786 O   0  0  0  0  0  0  0  0  0  0  0  0
   15.9683    5.1449    1.1144 O   0  0  0  0  0  0  0  0  0  0  0  0
   14.8993    5.9267   -1.2164 C   0  0  0  0  0  0  0  0  0  0  0  0
   14.5025    6.8274   -0.7661 H   0  0  0  0  0  0  0  0  0  0  0  0
   14.2297    5.5611   -1.9973 H   0  0  0  0  0  0  0  0  0  0  0  0
   15.8896    6.0924   -1.6344 H   0  0  0  0  0  0  0  0  0  0  0  0
   16.0846    2.1881   -0.0284 C   0  0  0  0  0  0  0  0  0  0  0  0
   16.3122    2.2980    1.0297 H   0  0  0  0  0  0  0  0  0  0  0  0
   16.2973    0.9568   -0.6332 C   0  0  0  0  0  0  0  0  0  0  0  0
   16.6583    0.1370   -0.0207 H   0  0  0  0  0  0  0  0  0  0  0  0
   15.5716   -1.5839   -1.4777 C   0  0  0  0  0  0  0  0  0  0  0  0
   15.5163   -1.2616   -0.4437 H   0  0  0  0  0  0  0  0  0  0  0  0
   13.3030   -3.5270   -0.3221 C   0  0  0  0  0  0  0  0  0  0  0  0
   12.3705   -3.6829   -1.1084 O   0  0  0  0  0  0  0  0  0  0  0  0
   13.1381   -2.9795    0.9384 N   0  0  0  0  0  0  0  0  0  0  0  0
   11.9160   -2.3870    1.4890 C   0  0  0  0  0  0  0  0  0  0  0  0
   12.0697   -1.3186    1.6891 H   0  0  0  0  0  0  0  0  0  0  0  0
   11.6421   -2.8779    2.4313 H   0  0  0  0  0  0  0  0  0  0  0  0
   11.0721   -2.4824    0.7955 H   0  0  0  0  0  0  0  0  0  0  0  0
   14.3863   -2.8260    1.4834 C   0  0  0  0  0  0  0  0  0  0  0  0
   14.6070   -2.2294    2.6883 N   0  0  0  0  0  0  0  0  0  0  0  0
   15.5228   -2.3446    3.1089 H   0  0  0  0  0  0  0  0  0  0  0  0
   13.8034   -2.0106    3.2764 H   0  0  0  0  0  0  0  0  0  0  0  0
   15.3250   -3.2721    0.7130 N   0  0  0  0  0  4  0  0  0  0  0  0
   16.3176   -3.1669    0.9198 H   0  0  0  0  0  0  0  0  0  0  0  0
   14.3368   -6.0449   -1.4967 C   0  0  0  0  0  0  0  0  0  0  0  0
   13.3785   -5.6725   -1.8418 H   0  0  0  0  0  0  0  0  0  0  0  0
   14.7074   -7.3672   -1.7505 C   0  0  0  0  0  0  0  0  0  0  0  0
   14.0223   -8.0170   -2.2836 H   0  0  0  0  0  0  0  0  0  0  0  0
  1  2  1  0
  2  3  2  0
  3  4  1  0
  3  5  1  0
  5  6  1  0
  5  7  2  0
  7  8  1  0
  8  9  1  0
  9 10  2  0
 10 11  1  0
 10 12  1  0
 12 13  1  0
 12 14  2  0
 14 15  1  0
 14 16  1  0
 16 17  1  0
 17 18  2  0
 18 19  1  0
 18 20  1  0
 20 21  1  0
 20 22  2  0
 22 23  1  0
 23 24  2  0
 23 25  2  0
 23 26  1  0
 26 27  1  0
 26 28  1  0
 26 29  1  0
 22 30  1  0
 30 31  1  0
 30 32  2  0
 32 33  1  0
 16 34  2  0
 34 35  1  0
  8 36  1  0
 36 37  2  0
 36 38  1  0
 38 39  1  0
 39 40  1  0
 39 41  1  0
 39 42  1  0
 38 43  1  0
 43 44  1  0
 44 45  1  0
 44 46  1  0
 43 47  2  0
 47 48  1  0
  7 49  1  0
 49 50  1  0
 49 51  2  0
 51 52  1  0
 51  2  1  0
 47  8  1  0
 34  9  1  0
 32 17  1  0
M  CHG  1  47   1
M  END
>  <score>  (44) 
6.17325

$$$$

     RDKit          3D

 52 56  0  0  0  0  0  0  0  0999 V2000
   16.1206   -8.4857   -1.6114 H   0  0  0  0  0  0  0  0  0  0  0  0
   15.8539   -7.4399   -1.4727 C   0  0  0  0  0  0  0  0  0  0  0  0
   16.7299   -6.5817   -0.8034 C   0  0  0  0  0  0  0  0  0  0  0  0
   17.6724   -6.9564   -0.4163 H   0  0  0  0  0  0  0  0  0  0  0  0
   16.3920   -5.2379   -0.6106 C   0  0  0  0  0  0  0  0  0  0  0  0
   17.0672   -4.5867   -0.0635 H   0  0  0  0  0  0  0  0  0  0  0  0
   15.1743   -4.7157   -1.0755 C   0  0  0  0  0  0  0  0  0  0  0  0
   14.8153   -3.2527   -0.7851 C   0  0  0  0  0  0  0  0  0  0  0  0
   15.3900   -2.2448   -1.7795 C   0  0  0  0  0  0  0  0  0  0  0  0
   15.9397   -2.6389   -3.0095 C   0  0  0  0  0  0  0  0  0  0  0  0
   16.0024   -3.6926   -3.2566 H   0  0  0  0  0  0  0  0  0  0  0  0
   16.4131   -1.6877   -3.9227 C   0  0  0  0  0  0  0  0  0  0  0  0
   16.8569   -2.0020   -4.8614 H   0  0  0  0  0  0  0  0  0  0  0  0
   16.3266   -0.3216   -3.6304 C   0  0  0  0  0  0  0  0  0  0  0  0
   16.7055    0.4136   -4.3353 H   0  0  0  0  0  0  0  0  0  0  0  0
   15.7756    0.1066   -2.4165 C   0  0  0  0  0  0  0  0  0  0  0  0
   15.7166    1.5516   -2.0916 C   0  0  0  0  0  0  0  0  0  0  0  0
   16.4018    2.0118   -0.9638 C   0  0  0  0  0  0  0  0  0  0  0  0
   16.8691    1.2698   -0.3460 H   0  0  0  0  0  0  0  0  0  0  0  0
   16.4728    3.3619   -0.6073 C   0  0  0  0  0  0  0  0  0  0  0  0
   17.0394    3.6735    0.2694 H   0  0  0  0  0  0  0  0  0  0  0  0
   15.7818    4.2933   -1.3753 C   0  0  0  0  0  0  0  0  0  0  0  0
   15.8024    5.3430   -1.0940 H   0  0  0  0  0  0  0  0  0  0  0  0
   15.0398    3.8636   -2.4858 C   0  0  0  0  0  0  0  0  0  0  0  0
   14.3232    4.7977   -3.2347 C   0  0  0  0  0  0  0  0  0  0  0  0
   14.3676    5.8387   -2.9535 H   0  0  0  0  0  0  0  0  0  0  0  0
   13.5542    4.4055   -4.3316 C   0  0  0  0  0  0  0  0  0  0  0  0
   13.0056    5.1489   -4.9046 H   0  0  0  0  0  0  0  0  0  0  0  0
   13.4966    3.0552   -4.6814 C   0  0  0  0  0  0  0  0  0  0  0  0
   12.8925    2.7442   -5.5256 H   0  0  0  0  0  0  0  0  0  0  0  0
   14.2167    2.1068   -3.9467 C   0  0  0  0  0  0  0  0  0  0  0  0
   14.1622    1.0565   -4.2089 H   0  0  0  0  0  0  0  0  0  0  0  0
   15.0022    2.4948   -2.8530 C   0  0  0  0  0  0  0  0  0  0  0  0
   15.3257   -0.8632   -1.5022 C   0  0  0  0  0  0  0  0  0  0  0  0
   14.9043   -0.5295   -0.5594 H   0  0  0  0  0  0  0  0  0  0  0  0
   13.3009   -3.0281   -0.6026 C   0  0  0  0  0  0  0  0  0  0  0  0
   12.4324   -3.0899   -1.4699 O   0  0  0  0  0  0  0  0  0  0  0  0
   13.0243   -2.6767    0.7030 N   0  0  0  0  0  0  0  0  0  0  0  0
   11.7184   -2.3130    1.2637 C   0  0  0  0  0  0  0  0  0  0  0  0
   11.5028   -2.9183    2.1481 H   0  0  0  0  0  0  0  0  0  0  0  0
   10.9124   -2.4737    0.5403 H   0  0  0  0  0  0  0  0  0  0  0  0
   11.6962   -1.2600    1.5600 H   0  0  0  0  0  0  0  0  0  0  0  0
   14.2265   -2.6289    1.3644 C   0  0  0  0  0  0  0  0  0  0  0  0
   14.3964   -2.3309    2.6860 N   0  0  0  0  0  0  0  0  0  0  0  0
   15.3321   -2.3525    3.0898 H   0  0  0  0  0  0  0  0  0  0  0  0
   13.5815   -2.1261    3.2609 H   0  0  0  0  0  0  0  0  0  0  0  0
   15.2215   -2.9055    0.5931 N   0  0  0  0  0  4  0  0  0  0  0  0
   16.1892   -2.9132    0.9070 H   0  0  0  0  0  0  0  0  0  0  0  0
   14.3043   -5.5875   -1.7680 C   0  0  0  0  0  0  0  0  0  0  0  0
   13.3536   -5.2313   -2.1552 H   0  0  0  0  0  0  0  0  0  0  0  0
   14.6432   -6.9385   -1.9618 C   0  0  0  0  0  0  0  0  0  0  0  0
   13.9720   -7.6116   -2.4879 H   0  0  0  0  0  0  0  0  0  0  0  0
  1  2  1  0
  2  3  2  0
  3  4  1  0
  3  5  1  0
  5  6  1  0
  5  7  2  0
  7  8  1  0
  8  9  1  0
  9 10  2  0
 10 11  1  0
 10 12  1  0
 12 13  1  0
 12 14  2  0
 14 15  1  0
 14 16  1  0
 16 17  1  0
 17 18  2  0
 18 19  1  0
 18 20  1  0
 20 21  1  0
 20 22  2  0
 22 23  1  0
 22 24  1  0
 24 25  2  0
 25 26  1  0
 25 27  1  0
 27 28  1  0
 27 29  2  0
 29 30  1  0
 29 31  1  0
 31 32  1  0
 31 33  2  0
 16 34  2  0
 34 35  1  0
  8 36  1  0
 36 37  2  0
 36 38  1  0
 38 39  1  0
 39 40  1  0
 39 41  1  0
 39 42  1  0
 38 43  1  0
 43 44  1  0
 44 45  1  0
 44 46  1  0
 43 47  2  0
 47 48  1  0
  7 49  1  0
 49 50  1  0
 49 51  2  0
 51 52  1  0
 51  2  1  0
 47  8  1  0
 34  9  1  0
 33 17  1  0
 33 24  1  0
M  CHG  1  47   1
M  END
>  <score>  (45) 
6.17325

$$$$

     RDKit          3D

 47 50  0  0  0  0  0  0  0  0999 V2000
   16.0978   -8.4203   -1.6710 H   0  0  0  0  0  0  0  0  0  0  0  0
   15.8631   -7.3742   -1.4984 C   0  0  0  0  0  0  0  0  0  0  0  0
   16.7652   -6.5584   -0.8085 C   0  0  0  0  0  0  0  0  0  0  0  0
   17.7063   -6.9619   -0.4481 H   0  0  0  0  0  0  0  0  0  0  0  0
   16.4559   -5.2160   -0.5695 C   0  0  0  0  0  0  0  0  0  0  0  0
   17.1626   -4.5883   -0.0338 H   0  0  0  0  0  0  0  0  0  0  0  0
   15.2350   -4.6730   -0.9999 C   0  0  0  0  0  0  0  0  0  0  0  0
   14.8774   -3.2251   -0.6839 C   0  0  0  0  0  0  0  0  0  0  0  0
   15.4214   -2.2197   -1.6958 C   0  0  0  0  0  0  0  0  0  0  0  0
   15.9889   -2.6397   -2.9114 C   0  0  0  0  0  0  0  0  0  0  0  0
   16.0655   -3.7016   -3.1255 H   0  0  0  0  0  0  0  0  0  0  0  0
   16.4348   -1.7106   -3.8557 C   0  0  0  0  0  0  0  0  0  0  0  0
   16.8825   -2.0558   -4.7839 H   0  0  0  0  0  0  0  0  0  0  0  0
   16.2617   -0.3446   -3.6177 C   0  0  0  0  0  0  0  0  0  0  0  0
   16.5811    0.3753   -4.3636 H   0  0  0  0  0  0  0  0  0  0  0  0
   15.6479    0.1053   -2.4437 C   0  0  0  0  0  0  0  0  0  0  0  0
   15.3104    1.4345   -2.3566 O   0  0  0  0  0  0  0  0  0  0  0  0
   15.3896    2.0977   -1.1561 C   0  0  0  0  0  0  0  0  0  0  0  0
   14.6807    3.2991   -1.0101 C   0  0  0  0  0  0  0  0  0  0  0  0
   13.9674    3.5989   -1.7755 H   0  0  0  0  0  0  0  0  0  0  0  0
   14.9365    4.1440    0.0788 C   0  0  0  0  0  0  0  0  0  0  0  0
   14.4220    5.0927    0.1916 H   0  0  0  0  0  0  0  0  0  0  0  0
   15.9059    3.7986    1.0236 C   0  0  0  0  0  0  0  0  0  0  0  0
   16.2439    4.8960    2.3347 Cl  0  0  0  0  0  0  0  0  0  0  0  0
   16.5908    2.5883    0.8921 C   0  0  0  0  0  0  0  0  0  0  0  0
   17.3844    2.3384    1.5864 H   0  0  0  0  0  0  0  0  0  0  0  0
   16.2828    1.7106   -0.1552 C   0  0  0  0  0  0  0  0  0  0  0  0
   16.7760    0.7558   -0.2832 H   0  0  0  0  0  0  0  0  0  0  0  0
   15.2697   -0.8348   -1.4731 C   0  0  0  0  0  0  0  0  0  0  0  0
   14.8066   -0.4711   -0.5613 H   0  0  0  0  0  0  0  0  0  0  0  0
   13.3572   -3.0304   -0.5249 C   0  0  0  0  0  0  0  0  0  0  0  0
   12.4950   -3.1912   -1.3876 O   0  0  0  0  0  0  0  0  0  0  0  0
   13.0761   -2.6365    0.7671 N   0  0  0  0  0  0  0  0  0  0  0  0
   11.7612   -2.2941    1.3062 C   0  0  0  0  0  0  0  0  0  0  0  0
   10.9748   -2.4772    0.5641 H   0  0  0  0  0  0  0  0  0  0  0  0
   11.5362   -2.8975    2.1929 H   0  0  0  0  0  0  0  0  0  0  0  0
   11.7264   -1.2349    1.5833 H   0  0  0  0  0  0  0  0  0  0  0  0
   14.2788   -2.5683    1.4410 C   0  0  0  0  0  0  0  0  0  0  0  0
   14.4487   -2.2204    2.7460 N   0  0  0  0  0  0  0  0  0  0  0  0
   13.6354   -2.0923    3.3442 H   0  0  0  0  0  0  0  0  0  0  0  0
   15.3828   -2.2859    3.1530 H   0  0  0  0  0  0  0  0  0  0  0  0
   15.2836   -2.8850    0.6951 N   0  0  0  0  0  4  0  0  0  0  0  0
   16.2429   -2.9721    1.0419 H   0  0  0  0  0  0  0  0  0  0  0  0
   14.3492   -5.4951   -1.7209 C   0  0  0  0  0  0  0  0  0  0  0  0
   13.4084   -5.0935   -2.0870 H   0  0  0  0  0  0  0  0  0  0  0  0
   14.6581   -6.8383   -1.9638 C   0  0  0  0  0  0  0  0  0  0  0  0
   13.9577   -7.4641   -2.5082 H   0  0  0  0  0  0  0  0  0  0  0  0
  1  2  1  0
  2  3  2  0
  3  4  1  0
  3  5  1  0
  5  6  1  0
  5  7  2  0
  7  8  1  0
  8  9  1  0
  9 10  2  0
 10 11  1  0
 10 12  1  0
 12 13  1  0
 12 14  2  0
 14 15  1  0
 14 16  1  0
 16 17  1  0
 17 18  1  0
 18 19  2  0
 19 20  1  0
 19 21  1  0
 21 22  1  0
 21 23  2  0
 23 24  1  0
 23 25  1  0
 25 26  1  0
 25 27  2  0
 27 28  1  0
 16 29  2  0
 29 30  1  0
  8 31  1  0
 31 32  2  0
 31 33  1  0
 33 34  1  0
 34 35  1  0
 34 36  1  0
 34 37  1  0
 33 38  1  0
 38 39  1  0
 39 40  1  0
 39 41  1  0
 38 42  2  0
 42 43  1  0
  7 44  1  0
 44 45  1  0
 44 46  2  0
 46 47  1  0
 46  2  1  0
 42  8  1  0
 29  9  1  0
 27 18  1  0
M  CHG  1  42   1
M  END
>  <score>  (46) 
6.16665

$$$$

     RDKit          3D

 44 47  0  0  0  0  0  0  0  0999 V2000
   16.1273   -8.4908   -1.6107 H   0  0  0  0  0  0  0  0  0  0  0  0
   15.8544   -7.4476   -1.4688 C   0  0  0  0  0  0  0  0  0  0  0  0
   16.7262   -6.5885   -0.7974 C   0  0  0  0  0  0  0  0  0  0  0  0
   17.6766   -6.9548   -0.4203 H   0  0  0  0  0  0  0  0  0  0  0  0
   16.3831   -5.2456   -0.6071 C   0  0  0  0  0  0  0  0  0  0  0  0
   17.0706   -4.5981   -0.0716 H   0  0  0  0  0  0  0  0  0  0  0  0
   15.1630   -4.7235   -1.0707 C   0  0  0  0  0  0  0  0  0  0  0  0
   14.8063   -3.2546   -0.7852 C   0  0  0  0  0  0  0  0  0  0  0  0
   15.3851   -2.2550   -1.7853 C   0  0  0  0  0  0  0  0  0  0  0  0
   15.9431   -2.6473   -3.0142 C   0  0  0  0  0  0  0  0  0  0  0  0
   16.0068   -3.6970   -3.2718 H   0  0  0  0  0  0  0  0  0  0  0  0
   16.4252   -1.7009   -3.9265 C   0  0  0  0  0  0  0  0  0  0  0  0
   16.8584   -2.0092   -4.8696 H   0  0  0  0  0  0  0  0  0  0  0  0
   16.3514   -0.3419   -3.6341 C   0  0  0  0  0  0  0  0  0  0  0  0
   16.6988    0.3985   -4.3506 H   0  0  0  0  0  0  0  0  0  0  0  0
   15.8012    0.0771   -2.4186 C   0  0  0  0  0  0  0  0  0  0  0  0
   15.7180    1.5075   -2.1059 C   0  0  0  0  0  0  0  0  0  0  0  0
   16.4349    2.5297   -2.6746 C   0  0  0  0  0  0  0  0  0  0  0  0
   17.1816    2.4231   -3.4464 H   0  0  0  0  0  0  0  0  0  0  0  0
   16.0301    3.7834   -2.0582 C   0  0  0  0  0  0  0  0  0  0  0  0
   16.4277    4.7705   -2.2935 H   0  0  0  0  0  0  0  0  0  0  0  0
   15.0611    3.4820   -1.1334 C   0  0  0  0  0  0  0  0  0  0  0  0
   14.5328    4.1902   -0.4933 H   0  0  0  0  0  0  0  0  0  0  0  0
   14.8847    2.1002   -1.1662 N   0  0  0  0  0  0  0  0  0  0  0  0
   14.2172    1.5876   -0.5928 H   0  0  0  0  0  0  0  0  0  0  0  0
   15.3221   -0.8782   -1.5088 C   0  0  0  0  0  0  0  0  0  0  0  0
   14.9101   -0.5343   -0.5639 H   0  0  0  0  0  0  0  0  0  0  0  0
   13.2930   -3.0192   -0.6102 C   0  0  0  0  0  0  0  0  0  0  0  0
   12.4228   -3.0775   -1.4793 O   0  0  0  0  0  0  0  0  0  0  0  0
   13.0200   -2.6679    0.6981 N   0  0  0  0  0  0  0  0  0  0  0  0
   11.7188   -2.3127    1.2620 C   0  0  0  0  0  0  0  0  0  0  0  0
   10.9154   -2.4767    0.5379 H   0  0  0  0  0  0  0  0  0  0  0  0
   11.6925   -1.2598    1.5587 H   0  0  0  0  0  0  0  0  0  0  0  0
   11.5013   -2.9199    2.1455 H   0  0  0  0  0  0  0  0  0  0  0  0
   14.2238   -2.6316    1.3661 C   0  0  0  0  0  0  0  0  0  0  0  0
   14.3902   -2.3392    2.6904 N   0  0  0  0  0  0  0  0  0  0  0  0
   15.3254   -2.3588    3.0967 H   0  0  0  0  0  0  0  0  0  0  0  0
   13.5796   -2.1270    3.2678 H   0  0  0  0  0  0  0  0  0  0  0  0
   15.2178   -2.9078    0.5924 N   0  0  0  0  0  4  0  0  0  0  0  0
   16.1919   -2.8950    0.8975 H   0  0  0  0  0  0  0  0  0  0  0  0
   14.2989   -5.5993   -1.7687 C   0  0  0  0  0  0  0  0  0  0  0  0
   13.3522   -5.2498   -2.1716 H   0  0  0  0  0  0  0  0  0  0  0  0
   14.6428   -6.9504   -1.9599 C   0  0  0  0  0  0  0  0  0  0  0  0
   13.9731   -7.6233   -2.4891 H   0  0  0  0  0  0  0  0  0  0  0  0
  1  2  1  0
  2  3  2  0
  3  4  1  0
  3  5  1  0
  5  6  1  0
  5  7  2  0
  7  8  1  0
  8  9  1  0
  9 10  2  0
 10 11  1  0
 10 12  1  0
 12 13  1  0
 12 14  2  0
 14 15  1  0
 14 16  1  0
 16 17  1  0
 17 18  2  0
 18 19  1  0
 18 20  1  0
 20 21  1  0
 20 22  2  0
 22 23  1  0
 22 24  1  0
 24 25  1  0
 16 26  2  0
 26 27  1  0
  8 28  1  0
 28 29  2  0
 28 30  1  0
 30 31  1  0
 31 32  1  0
 31 33  1  0
 31 34  1  0
 30 35  1  0
 35 36  1  0
 36 37  1  0
 36 38  1  0
 35 39  2  0
 39 40  1  0
  7 41  1  0
 41 42  1  0
 41 43  2  0
 43 44  1  0
 43  2  1  0
 39  8  1  0
 26  9  1  0
 24 17  1  0
M  CHG  1  39   1
M  END
>  <score>  (47) 
6.1627

$$$$

     RDKit          3D

 41 44  0  0  0  0  0  0  0  0999 V2000
   16.1285   -8.4916   -1.6106 H   0  0  0  0  0  0  0  0  0  0  0  0
   15.8549   -7.4488   -1.4678 C   0  0  0  0  0  0  0  0  0  0  0  0
   16.7258   -6.5892   -0.7962 C   0  0  0  0  0  0  0  0  0  0  0  0
   17.6777   -6.9548   -0.4211 H   0  0  0  0  0  0  0  0  0  0  0  0
   16.3803   -5.2470   -0.6056 C   0  0  0  0  0  0  0  0  0  0  0  0
   17.0719   -4.6012   -0.0738 H   0  0  0  0  0  0  0  0  0  0  0  0
   15.1600   -4.7237   -1.0706 C   0  0  0  0  0  0  0  0  0  0  0  0
   14.8043   -3.2522   -0.7874 C   0  0  0  0  0  0  0  0  0  0  0  0
   15.3866   -2.2480   -1.7854 C   0  0  0  0  0  0  0  0  0  0  0  0
   15.9452   -2.6456   -3.0137 C   0  0  0  0  0  0  0  0  0  0  0  0
   16.0090   -3.6973   -3.2747 H   0  0  0  0  0  0  0  0  0  0  0  0
   16.4250   -1.6967   -3.9234 C   0  0  0  0  0  0  0  0  0  0  0  0
   16.8609   -2.0078   -4.8656 H   0  0  0  0  0  0  0  0  0  0  0  0
   16.3462   -0.3362   -3.6328 C   0  0  0  0  0  0  0  0  0  0  0  0
   16.7084    0.3913   -4.3576 H   0  0  0  0  0  0  0  0  0  0  0  0
   15.7970    0.0940   -2.4148 C   0  0  0  0  0  0  0  0  0  0  0  0
   15.7237    1.5330   -2.1165 C   0  0  0  0  0  0  0  0  0  0  0  0
   16.1114    2.4922   -2.9049 N   0  0  0  0  0  0  0  0  0  0  0  0
   15.8690    3.6738   -2.2532 N   0  0  0  0  0  0  0  0  0  0  0  0
   15.3445    3.4829   -1.0944 N   0  0  0  0  0  0  0  0  0  0  0  0
   15.2440    2.1425   -0.9899 N   0  0  0  0  0  0  0  0  0  0  0  0
   14.8678    1.6459   -0.1889 H   0  0  0  0  0  0  0  0  0  0  0  0
   15.3230   -0.8684   -1.5048 C   0  0  0  0  0  0  0  0  0  0  0  0
   14.8952   -0.5448   -0.5591 H   0  0  0  0  0  0  0  0  0  0  0  0
   13.2882   -3.0210   -0.6113 C   0  0  0  0  0  0  0  0  0  0  0  0
   12.4195   -3.0756   -1.4823 O   0  0  0  0  0  0  0  0  0  0  0  0
   13.0191   -2.6666    0.6975 N   0  0  0  0  0  0  0  0  0  0  0  0
   11.7176   -2.3123    1.2628 C   0  0  0  0  0  0  0  0  0  0  0  0
   11.5006   -2.9216    2.1460 H   0  0  0  0  0  0  0  0  0  0  0  0
   11.6923   -1.2582    1.5588 H   0  0  0  0  0  0  0  0  0  0  0  0
   10.9156   -2.4776    0.5361 H   0  0  0  0  0  0  0  0  0  0  0  0
   14.2232   -2.6318    1.3660 C   0  0  0  0  0  0  0  0  0  0  0  0
   14.3891   -2.3404    2.6918 N   0  0  0  0  0  0  0  0  0  0  0  0
   15.3242   -2.3605    3.0986 H   0  0  0  0  0  0  0  0  0  0  0  0
   13.5787   -2.1273    3.2702 H   0  0  0  0  0  0  0  0  0  0  0  0
   15.2185   -2.9053    0.5910 N   0  0  0  0  0  4  0  0  0  0  0  0
   16.1936   -2.8917    0.8957 H   0  0  0  0  0  0  0  0  0  0  0  0
   14.2977   -5.6019   -1.7695 C   0  0  0  0  0  0  0  0  0  0  0  0
   13.3519   -5.2539   -2.1751 H   0  0  0  0  0  0  0  0  0  0  0  0
   14.6427   -6.9531   -1.9593 C   0  0  0  0  0  0  0  0  0  0  0  0
   13.9730   -7.6256   -2.4894 H   0  0  0  0  0  0  0  0  0  0  0  0
  1  2  1  0
  2  3  2  0
  3  4  1  0
  3  5  1  0
  5  6  1  0
  5  7  2  0
  7  8  1  0
  8  9  1  0
  9 10  2  0
 10 11  1  0
 10 12  1  0
 12 13  1  0
 12 14  2  0
 14 15  1  0
 14 16  1  0
 16 17  1  0
 17 18  2  0
 18 19  1  0
 19 20  2  0
 20 21  1  0
 21 22  1  0
 16 23  2  0
 23 24  1  0
  8 25  1  0
 25 26  2  0
 25 27  1  0
 27 28  1  0
 28 29  1  0
 28 30  1  0
 28 31  1  0
 27 32  1  0
 32 33  1  0
 33 34  1  0
 33 35  1  0
 32 36  2  0
 36 37  1  0
  7 38  1  0
 38 39  1  0
 38 40  2  0
 40 41  1  0
 40  2  1  0
 36  8  1  0
 23  9  1  0
 21 17  1  0
M  CHG  1  36   1
M  END
>  <score>  (48) 
6.16265

$$$$

     RDKit          3D

 55 58  0  0  0  0  0  0  0  0999 V2000
   16.0786   -8.2198   -1.6640 H   0  0  0  0  0  0  0  0  0  0  0  0
   15.8731   -7.1634   -1.5082 C   0  0  0  0  0  0  0  0  0  0  0  0
   16.7886   -6.3563   -0.8255 C   0  0  0  0  0  0  0  0  0  0  0  0
   17.7153   -6.7889   -0.4580 H   0  0  0  0  0  0  0  0  0  0  0  0
   16.5026   -5.0007   -0.5966 C   0  0  0  0  0  0  0  0  0  0  0  0
   17.2163   -4.4000   -0.0415 H   0  0  0  0  0  0  0  0  0  0  0  0
   15.2960   -4.4263   -1.0436 C   0  0  0  0  0  0  0  0  0  0  0  0
   14.9012   -2.9793   -0.7047 C   0  0  0  0  0  0  0  0  0  0  0  0
   15.3090   -1.9184   -1.7377 C   0  0  0  0  0  0  0  0  0  0  0  0
   16.0506   -2.2689   -2.8762 C   0  0  0  0  0  0  0  0  0  0  0  0
   16.3883   -3.2913   -3.0085 H   0  0  0  0  0  0  0  0  0  0  0  0
   16.3419   -1.3237   -3.8647 C   0  0  0  0  0  0  0  0  0  0  0  0
   16.8888   -1.6153   -4.7550 H   0  0  0  0  0  0  0  0  0  0  0  0
   15.9298    0.0018   -3.7198 C   0  0  0  0  0  0  0  0  0  0  0  0
   16.1710    0.7253   -4.4939 H   0  0  0  0  0  0  0  0  0  0  0  0
   15.2189    0.4120   -2.5866 C   0  0  0  0  0  0  0  0  0  0  0  0
   14.8595    1.8957   -2.4553 C   0  0  0  0  0  0  0  0  0  0  0  0
   14.2640    2.2011   -3.3211 H   0  0  0  0  0  0  0  0  0  0  0  0
   14.2547    2.0702   -1.5634 H   0  0  0  0  0  0  0  0  0  0  0  0
   16.1188    2.7922   -2.3616 C   0  0  0  0  0  0  0  0  0  0  0  0
   16.6617    2.7273   -3.3122 H   0  0  0  0  0  0  0  0  0  0  0  0
   17.0074    2.2594   -1.2311 C   0  0  0  0  0  0  0  0  0  0  0  0
   17.2394    1.2047   -1.4149 H   0  0  0  0  0  0  0  0  0  0  0  0
   17.9459    2.8144   -1.2066 H   0  0  0  0  0  0  0  0  0  0  0  0
   16.3170    2.4272    0.1246 C   0  0  0  0  0  0  0  0  0  0  0  0
   15.3533    1.9158    0.1226 H   0  0  0  0  0  0  0  0  0  0  0  0
   16.9303    1.9925    0.9144 H   0  0  0  0  0  0  0  0  0  0  0  0
   16.1200    3.9078    0.4105 C   0  0  0  0  0  0  0  0  0  0  0  0
   15.6249    4.0487    1.3794 H   0  0  0  0  0  0  0  0  0  0  0  0
   17.1051    4.3721    0.4583 H   0  0  0  0  0  0  0  0  0  0  0  0
   15.2923    4.5844   -0.6827 C   0  0  0  0  0  0  0  0  0  0  0  0
   15.3047    5.6632   -0.5170 H   0  0  0  0  0  0  0  0  0  0  0  0
   14.2555    4.2557   -0.5896 H   0  0  0  0  0  0  0  0  0  0  0  0
   15.7925    4.2825   -2.1087 C   0  0  0  0  0  0  0  0  0  0  0  0
   16.6995    4.8756   -2.2832 H   0  0  0  0  0  0  0  0  0  0  0  0
   15.0307    4.6146   -2.8208 H   0  0  0  0  0  0  0  0  0  0  0  0
   14.8872   -0.5657   -1.6127 C   0  0  0  0  0  0  0  0  0  0  0  0
   14.2924   -0.2765   -0.7494 H   0  0  0  0  0  0  0  0  0  0  0  0
   13.3822   -2.8799   -0.4690 C   0  0  0  0  0  0  0  0  0  0  0  0
   12.4858   -3.1453   -1.2677 O   0  0  0  0  0  0  0  0  0  0  0  0
   13.1297   -2.4930    0.8285 N   0  0  0  0  0  0  0  0  0  0  0  0
   11.8090   -2.2469    1.4100 C   0  0  0  0  0  0  0  0  0  0  0  0
   11.0214   -2.4705    0.6806 H   0  0  0  0  0  0  0  0  0  0  0  0
   11.7048   -1.1966    1.7046 H   0  0  0  0  0  0  0  0  0  0  0  0
   11.6403   -2.8777    2.2901 H   0  0  0  0  0  0  0  0  0  0  0  0
   14.3509   -2.4032    1.4585 C   0  0  0  0  0  0  0  0  0  0  0  0
   14.5179   -2.1502    2.7891 N   0  0  0  0  0  0  0  0  0  0  0  0
   15.4537   -2.1871    3.1858 H   0  0  0  0  0  0  0  0  0  0  0  0
   13.7038   -2.0776    3.3952 H   0  0  0  0  0  0  0  0  0  0  0  0
   15.3463   -2.6218    0.6613 N   0  0  0  0  0  4  0  0  0  0  0  0
   16.3105   -2.7308    0.9840 H   0  0  0  0  0  0  0  0  0  0  0  0
   14.4069   -5.2499   -1.7617 C   0  0  0  0  0  0  0  0  0  0  0  0
   13.4710   -4.8431   -2.1297 H   0  0  0  0  0  0  0  0  0  0  0  0
   14.6851   -6.6046   -1.9841 C   0  0  0  0  0  0  0  0  0  0  0  0
   13.9696   -7.2268   -2.5139 H   0  0  0  0  0  0  0  0  0  0  0  0
  1  2  1  0
  2  3  2  0
  3  4  1  0
  3  5  1  0
  5  6  1  0
  5  7  2  0
  7  8  1  0
  8  9  1  0
  9 10  2  0
 10 11  1  0
 10 12  1  0
 12 13  1  0
 12 14  2  0
 14 15  1  0
 14 16  1  0
 16 17  1  0
 17 18  1  0
 17 19  1  0
 17 20  1  0
 20 21  1  0
 20 22  1  0
 22 23  1  0
 22 24  1  0
 22 25  1  0
 25 26  1  0
 25 27  1  0
 25 28  1  0
 28 29  1  0
 28 30  1  0
 28 31  1  0
 31 32  1  0
 31 33  1  0
 31 34  1  0
 34 35  1  0
 34 36  1  0
 16 37  2  0
 37 38  1  0
  8 39  1  0
 39 40  2  0
 39 41  1  0
 41 42  1  0
 42 43  1  0
 42 44  1  0
 42 45  1  0
 41 46  1  0
 46 47  1  0
 47 48  1  0
 47 49  1  0
 46 50  2  0
 50 51  1  0
  7 52  1  0
 52 53  1  0
 52 54  2  0
 54 55  1  0
 54  2  1  0
 50  8  1  0
 37  9  1  0
 34 20  1  0
M  CHG  1  50   1
M  END
>  <score>  (49) 
6.15767

$$$$

     RDKit          3D

 49 52  0  0  0  0  0  0  0  0999 V2000
   16.1630   -8.5097   -1.7663 H   0  0  0  0  0  0  0  0  0  0  0  0
   15.9100   -7.4742   -1.5557 C   0  0  0  0  0  0  0  0  0  0  0  0
   16.7983   -6.6662   -0.8402 C   0  0  0  0  0  0  0  0  0  0  0  0
   17.7446   -7.0725   -0.4956 H   0  0  0  0  0  0  0  0  0  0  0  0
   16.4659   -5.3361   -0.5556 C   0  0  0  0  0  0  0  0  0  0  0  0
   17.1615   -4.7206    0.0077 H   0  0  0  0  0  0  0  0  0  0  0  0
   15.2388   -4.7903   -0.9690 C   0  0  0  0  0  0  0  0  0  0  0  0
   14.8653   -3.3503   -0.6070 C   0  0  0  0  0  0  0  0  0  0  0  0
   15.4248   -2.2993   -1.5631 C   0  0  0  0  0  0  0  0  0  0  0  0
   15.9378   -2.6427   -2.8226 C   0  0  0  0  0  0  0  0  0  0  0  0
   15.9545   -3.6846   -3.1247 H   0  0  0  0  0  0  0  0  0  0  0  0
   16.4218   -1.6584   -3.6952 C   0  0  0  0  0  0  0  0  0  0  0  0
   16.8273   -1.9397   -4.6616 H   0  0  0  0  0  0  0  0  0  0  0  0
   16.3488   -0.3065   -3.3417 C   0  0  0  0  0  0  0  0  0  0  0  0
   16.6970    0.4561   -4.0353 H   0  0  0  0  0  0  0  0  0  0  0  0
   15.7764    0.0655   -2.1174 C   0  0  0  0  0  0  0  0  0  0  0  0
   15.4804    1.5119   -1.8040 C   0  0  0  0  0  0  0  0  0  0  0  0
   14.4932    1.5748   -1.3318 H   0  0  0  0  0  0  0  0  0  0  0  0
   15.4160    2.0644   -2.7506 H   0  0  0  0  0  0  0  0  0  0  0  0
   16.4584    2.1430   -0.9194 N   0  0  0  0  0  0  0  0  0  0  0  0
   16.4493    1.9972    0.4411 N   0  0  0  0  0  0  0  0  0  0  0  0
   16.9905    3.1177    0.8647 C   0  0  0  0  0  0  0  0  0  0  0  0
   17.3538    3.4057    2.1566 O   0  0  0  0  0  0  0  0  0  0  0  0
   18.2103    2.4180    2.7751 C   0  0  0  0  0  0  0  0  0  0  0  0
   18.3716    2.6427    3.8336 H   0  0  0  0  0  0  0  0  0  0  0  0
   17.8116    1.4061    2.7129 H   0  0  0  0  0  0  0  0  0  0  0  0
   19.1943    2.4030    2.3069 H   0  0  0  0  0  0  0  0  0  0  0  0
   17.2687    4.0215   -0.1096 O   0  0  0  0  0  0  0  0  0  0  0  0
   16.9807    3.3822   -1.2280 C   0  0  0  0  0  0  0  0  0  0  0  0
   17.0845    3.8364   -2.3624 O   0  0  0  0  0  0  0  0  0  0  0  0
   15.3583   -0.9330   -1.2254 C   0  0  0  0  0  0  0  0  0  0  0  0
   14.9397   -0.6317   -0.2685 H   0  0  0  0  0  0  0  0  0  0  0  0
   13.3443   -3.1567   -0.4298 C   0  0  0  0  0  0  0  0  0  0  0  0
   12.4642   -3.3636   -1.2660 O   0  0  0  0  0  0  0  0  0  0  0  0
   13.0780   -2.7129    0.8484 N   0  0  0  0  0  0  0  0  0  0  0  0
   11.7796   -2.2869    1.3793 C   0  0  0  0  0  0  0  0  0  0  0  0
   11.5268   -2.8490    2.2852 H   0  0  0  0  0  0  0  0  0  0  0  0
   10.9820   -2.4542    0.6456 H   0  0  0  0  0  0  0  0  0  0  0  0
   11.7939   -1.2192    1.6252 H   0  0  0  0  0  0  0  0  0  0  0  0
   14.2885   -2.6230    1.4988 C   0  0  0  0  0  0  0  0  0  0  0  0
   14.4805   -2.1484    2.7595 N   0  0  0  0  0  0  0  0  0  0  0  0
   15.3991   -2.2825    3.1785 H   0  0  0  0  0  0  0  0  0  0  0  0
   13.6670   -2.0439    3.3635 H   0  0  0  0  0  0  0  0  0  0  0  0
   15.2790   -3.0274    0.7732 N   0  0  0  0  0  4  0  0  0  0  0  0
   16.2548   -2.9674    1.0681 H   0  0  0  0  0  0  0  0  0  0  0  0
   14.3613   -5.6125   -1.7061 C   0  0  0  0  0  0  0  0  0  0  0  0
   13.4074   -5.2247   -2.0514 H   0  0  0  0  0  0  0  0  0  0  0  0
   14.6928   -6.9445   -1.9930 C   0  0  0  0  0  0  0  0  0  0  0  0
   14.0025   -7.5737   -2.5482 H   0  0  0  0  0  0  0  0  0  0  0  0
  1  2  1  0
  2  3  2  0
  3  4  1  0
  3  5  1  0
  5  6  1  0
  5  7  2  0
  7  8  1  0
  8  9  1  0
  9 10  2  0
 10 11  1  0
 10 12  1  0
 12 13  1  0
 12 14  2  0
 14 15  1  0
 14 16  1  0
 16 17  1  0
 17 18  1  0
 17 19  1  0
 17 20  1  0
 20 21  1  0
 21 22  2  0
 22 23  1  0
 23 24  1  0
 24 25  1  0
 24 26  1  0
 24 27  1  0
 22 28  1  0
 28 29  1  0
 29 30  2  0
 16 31  2  0
 31 32  1  0
  8 33  1  0
 33 34  2  0
 33 35  1  0
 35 36  1  0
 36 37  1  0
 36 38  1  0
 36 39  1  0
 35 40  1  0
 40 41  1  0
 41 42  1  0
 41 43  1  0
 40 44  2  0
 44 45  1  0
  7 46  1  0
 46 47  1  0
 46 48  2  0
 48 49  1  0
 48  2  1  0
 44  8  1  0
 31  9  1  0
 29 20  1  0
M  CHG  1  44   1
M  END
>  <score>  (50) 
6.15446

$$$$

     RDKit          3D

 46 49  0  0  0  0  0  0  0  0999 V2000
   16.0800   -8.4576   -1.6812 H   0  0  0  0  0  0  0  0  0  0  0  0
   15.8187   -7.4125   -1.5468 C   0  0  0  0  0  0  0  0  0  0  0  0
   16.7060   -6.5504   -0.8981 C   0  0  0  0  0  0  0  0  0  0  0  0
   17.6573   -6.9239   -0.5274 H   0  0  0  0  0  0  0  0  0  0  0  0
   16.3605   -5.2111   -0.7056 C   0  0  0  0  0  0  0  0  0  0  0  0
   17.0536   -4.5497   -0.1923 H   0  0  0  0  0  0  0  0  0  0  0  0
   15.1209   -4.7079   -1.1330 C   0  0  0  0  0  0  0  0  0  0  0  0
   14.7723   -3.2514   -0.8157 C   0  0  0  0  0  0  0  0  0  0  0  0
   15.3620   -2.2475   -1.7938 C   0  0  0  0  0  0  0  0  0  0  0  0
   15.9065   -2.6432   -3.0242 C   0  0  0  0  0  0  0  0  0  0  0  0
   15.9546   -3.7008   -3.2690 H   0  0  0  0  0  0  0  0  0  0  0  0
   16.3866   -1.6861   -3.9236 C   0  0  0  0  0  0  0  0  0  0  0  0
   16.8249   -2.0061   -4.8621 H   0  0  0  0  0  0  0  0  0  0  0  0
   16.3076   -0.3237   -3.6114 C   0  0  0  0  0  0  0  0  0  0  0  0
   16.6820    0.4168   -4.3095 H   0  0  0  0  0  0  0  0  0  0  0  0
   15.7761    0.0951   -2.3848 C   0  0  0  0  0  0  0  0  0  0  0  0
   15.6898    1.5267   -2.0552 C   0  0  0  0  0  0  0  0  0  0  0  0
   16.0337    1.9911   -0.7727 C   0  0  0  0  0  0  0  0  0  0  0  0
   16.3714    1.2894   -0.0136 H   0  0  0  0  0  0  0  0  0  0  0  0
   15.9677    3.3572   -0.4725 C   0  0  0  0  0  0  0  0  0  0  0  0
   16.2602    3.7088    0.5115 H   0  0  0  0  0  0  0  0  0  0  0  0
   15.5292    4.2692   -1.4347 C   0  0  0  0  0  0  0  0  0  0  0  0
   15.4656    5.3272   -1.1968 H   0  0  0  0  0  0  0  0  0  0  0  0
   15.1733    3.8101   -2.7053 C   0  0  0  0  0  0  0  0  0  0  0  0
   14.8236    4.5067   -3.4574 H   0  0  0  0  0  0  0  0  0  0  0  0
   15.2618    2.4510   -3.0244 C   0  0  0  0  0  0  0  0  0  0  0  0
   14.9051    2.0357   -4.2643 F   0  0  0  0  0  0  0  0  0  0  0  0
   15.3161   -0.8760   -1.4881 C   0  0  0  0  0  0  0  0  0  0  0  0
   14.8948   -0.5553   -0.5394 H   0  0  0  0  0  0  0  0  0  0  0  0
   13.2595   -2.9900   -0.6651 C   0  0  0  0  0  0  0  0  0  0  0  0
   12.3667   -3.1950   -1.4889 O   0  0  0  0  0  0  0  0  0  0  0  0
   13.0046   -2.5170    0.6063 N   0  0  0  0  0  0  0  0  0  0  0  0
   11.6932   -2.2245    1.1732 C   0  0  0  0  0  0  0  0  0  0  0  0
   11.6146   -1.1687    1.4760 H   0  0  0  0  0  0  0  0  0  0  0  0
   10.9139   -2.4397    0.4303 H   0  0  0  0  0  0  0  0  0  0  0  0
   11.5297   -2.8594    2.0518 H   0  0  0  0  0  0  0  0  0  0  0  0
   14.1850   -2.6014    1.3104 C   0  0  0  0  0  0  0  0  0  0  0  0
   14.3401   -2.4105    2.6531 N   0  0  0  0  0  0  0  0  0  0  0  0
   13.5793   -1.9877    3.1801 H   0  0  0  0  0  0  0  0  0  0  0  0
   15.2950   -2.3864    3.0142 H   0  0  0  0  0  0  0  0  0  0  0  0
   15.1870   -2.9215    0.5668 N   0  0  0  0  0  4  0  0  0  0  0  0
   16.1195   -3.0894    0.9352 H   0  0  0  0  0  0  0  0  0  0  0  0
   14.2460   -5.5812   -1.8232 C   0  0  0  0  0  0  0  0  0  0  0  0
   13.2866   -5.2272   -2.1942 H   0  0  0  0  0  0  0  0  0  0  0  0
   14.5967   -6.9278   -2.0271 C   0  0  0  0  0  0  0  0  0  0  0  0
   13.9199   -7.6059   -2.5434 H   0  0  0  0  0  0  0  0  0  0  0  0
  1  2  1  0
  2  3  2  0
  3  4  1  0
  3  5  1  0
  5  6  1  0
  5  7  2  0
  7  8  1  0
  8  9  1  0
  9 10  2  0
 10 11  1  0
 10 12  1  0
 12 13  1  0
 12 14  2  0
 14 15  1  0
 14 16  1  0
 16 17  1  0
 17 18  2  0
 18 19  1  0
 18 20  1  0
 20 21  1  0
 20 22  2  0
 22 23  1  0
 22 24  1  0
 24 25  1  0
 24 26  2  0
 26 27  1  0
 16 28  2  0
 28 29  1  0
  8 30  1  0
 30 31  2  0
 30 32  1  0
 32 33  1  0
 33 34  1  0
 33 35  1  0
 33 36  1  0
 32 37  1  0
 37 38  1  0
 38 39  1  0
 38 40  1  0
 37 41  2  0
 41 42  1  0
  7 43  1  0
 43 44  1  0
 43 45  2  0
 45 46  1  0
 45  2  1  0
 41  8  1  0
 28  9  1  0
 26 17  1  0
M  CHG  1  41   1
M  END
>  <score>  (51) 
6.14678

$$$$

     RDKit          3D

 49 53  0  0  0  0  0  0  0  0999 V2000
   16.1978   -8.5284   -1.7719 H   0  0  0  0  0  0  0  0  0  0  0  0
   15.9170   -7.5091   -1.5242 C   0  0  0  0  0  0  0  0  0  0  0  0
   16.7858   -6.7038   -0.7791 C   0  0  0  0  0  0  0  0  0  0  0  0
   17.7457   -7.0953   -0.4492 H   0  0  0  0  0  0  0  0  0  0  0  0
   16.4213   -5.3884   -0.4711 C   0  0  0  0  0  0  0  0  0  0  0  0
   17.1105   -4.7635    0.0900 H   0  0  0  0  0  0  0  0  0  0  0  0
   15.1911   -4.8626   -0.9001 C   0  0  0  0  0  0  0  0  0  0  0  0
   14.8449   -3.4037   -0.6454 C   0  0  0  0  0  0  0  0  0  0  0  0
   15.4223   -2.4900   -1.7107 C   0  0  0  0  0  0  0  0  0  0  0  0
   15.9569   -2.9658   -2.9126 C   0  0  0  0  0  0  0  0  0  0  0  0
   16.0095   -4.0371   -3.0703 H   0  0  0  0  0  0  0  0  0  0  0  0
   16.4016   -2.0750   -3.8976 C   0  0  0  0  0  0  0  0  0  0  0  0
   16.7753   -2.4538   -4.8354 H   0  0  0  0  0  0  0  0  0  0  0  0
   16.3315   -0.6941   -3.6957 C   0  0  0  0  0  0  0  0  0  0  0  0
   16.6709   -0.0018   -4.4618 H   0  0  0  0  0  0  0  0  0  0  0  0
   15.7868   -0.2057   -2.5092 C   0  0  0  0  0  0  0  0  0  0  0  0
   15.6298    1.2215   -2.2622 C   0  0  0  0  0  0  0  0  0  0  0  0
   16.3842    2.5735   -3.1134 S   0  0  0  0  0  0  0  0  0  0  0  0
   15.6705    3.7045   -1.9650 C   0  0  0  0  0  0  0  0  0  0  0  0
   15.8402    5.0840   -1.8675 C   0  0  0  0  0  0  0  0  0  0  0  0
   16.4538    5.5935   -2.5990 H   0  0  0  0  0  0  0  0  0  0  0  0
   15.2319    5.7774   -0.8080 C   0  0  0  0  0  0  0  0  0  0  0  0
   15.3819    6.8395   -0.6868 H   0  0  0  0  0  0  0  0  0  0  0  0
   14.4448    5.0905    0.1265 C   0  0  0  0  0  0  0  0  0  0  0  0
   13.9829    5.6117    0.9539 H   0  0  0  0  0  0  0  0  0  0  0  0
   14.2612    3.7169    0.0164 C   0  0  0  0  0  0  0  0  0  0  0  0
   13.6761    3.1586    0.7407 H   0  0  0  0  0  0  0  0  0  0  0  0
   14.8778    3.0495   -1.0311 C   0  0  0  0  0  0  0  0  0  0  0  0
   14.8373    1.6365   -1.2292 C   0  0  0  0  0  0  0  0  0  0  0  0
   14.2636    0.9573   -0.6132 H   0  0  0  0  0  0  0  0  0  0  0  0
   15.3488   -1.1093   -1.5317 C   0  0  0  0  0  0  0  0  0  0  0  0
   14.9255   -0.7174   -0.6127 H   0  0  0  0  0  0  0  0  0  0  0  0
   13.3340   -3.1323   -0.5293 C   0  0  0  0  0  0  0  0  0  0  0  0
   12.4667   -3.3544   -1.3743 O   0  0  0  0  0  0  0  0  0  0  0  0
   13.0647   -2.5400    0.6856 N   0  0  0  0  0  0  0  0  0  0  0  0
   11.7487   -2.2322    1.2484 C   0  0  0  0  0  0  0  0  0  0  0  0
   11.5351   -2.8826    2.0999 H   0  0  0  0  0  0  0  0  0  0  0  0
   10.9475   -2.3775    0.5192 H   0  0  0  0  0  0  0  0  0  0  0  0
   11.7056   -1.1955    1.5964 H   0  0  0  0  0  0  0  0  0  0  0  0
   14.2400   -2.5270    1.3927 C   0  0  0  0  0  0  0  0  0  0  0  0
   14.3362   -2.1177    2.6902 N   0  0  0  0  0  0  0  0  0  0  0  0
   15.2176   -2.2645    3.1736 H   0  0  0  0  0  0  0  0  0  0  0  0
   13.4762   -2.0584    3.2321 H   0  0  0  0  0  0  0  0  0  0  0  0
   15.2418   -2.9705    0.7123 N   0  0  0  0  0  4  0  0  0  0  0  0
   16.1844   -3.0713    1.0875 H   0  0  0  0  0  0  0  0  0  0  0  0
   14.3230   -5.6860   -1.6410 C   0  0  0  0  0  0  0  0  0  0  0  0
   13.3702   -5.2996   -1.9935 H   0  0  0  0  0  0  0  0  0  0  0  0
   14.6840   -7.0024   -1.9513 C   0  0  0  0  0  0  0  0  0  0  0  0
   14.0115   -7.6251   -2.5358 H   0  0  0  0  0  0  0  0  0  0  0  0
  1  2  1  0
  2  3  2  0
  3  4  1  0
  3  5  1  0
  5  6  1  0
  5  7  2  0
  7  8  1  0
  8  9  1  0
  9 10  2  0
 10 11  1  0
 10 12  1  0
 12 13  1  0
 12 14  2  0
 14 15  1  0
 14 16  1  0
 16 17  1  0
 17 18  1  0
 18 19  1  0
 19 20  2  0
 20 21  1  0
 20 22  1  0
 22 23  1  0
 22 24  2  0
 24 25  1  0
 24 26  1  0
 26 27  1  0
 26 28  2  0
 28 29  1  0
 29 30  1  0
 16 31  2  0
 31 32  1  0
  8 33  1  0
 33 34  2  0
 33 35  1  0
 35 36  1  0
 36 37  1  0
 36 38  1  0
 36 39  1  0
 35 40  1  0
 40 41  1  0
 41 42  1  0
 41 43  1  0
 40 44  2  0
 44 45  1  0
  7 46  1  0
 46 47  1  0
 46 48  2  0
 48 49  1  0
 48  2  1  0
 44  8  1  0
 31  9  1  0
 29 17  2  0
 28 19  1  0
M  CHG  1  44   1
M  END
>  <score>  (52) 
6.1434

$$$$

     RDKit          3D

 44 47  0  0  0  0  0  0  0  0999 V2000
   16.1260   -8.4901   -1.6109 H   0  0  0  0  0  0  0  0  0  0  0  0
   15.8542   -7.4460   -1.4695 C   0  0  0  0  0  0  0  0  0  0  0  0
   16.7270   -6.5869   -0.7991 C   0  0  0  0  0  0  0  0  0  0  0  0
   17.6758   -6.9552   -0.4193 H   0  0  0  0  0  0  0  0  0  0  0  0
   16.3846   -5.2439   -0.6078 C   0  0  0  0  0  0  0  0  0  0  0  0
   17.0697   -4.5954   -0.0698 H   0  0  0  0  0  0  0  0  0  0  0  0
   15.1655   -4.7215   -1.0721 C   0  0  0  0  0  0  0  0  0  0  0  0
   14.8100   -3.2525   -0.7862 C   0  0  0  0  0  0  0  0  0  0  0  0
   15.3862   -2.2451   -1.7848 C   0  0  0  0  0  0  0  0  0  0  0  0
   15.9428   -2.6406   -3.0119 C   0  0  0  0  0  0  0  0  0  0  0  0
   16.0068   -3.6926   -3.2667 H   0  0  0  0  0  0  0  0  0  0  0  0
   16.4219   -1.6887   -3.9205 C   0  0  0  0  0  0  0  0  0  0  0  0
   16.8619   -2.0053   -4.8619 H   0  0  0  0  0  0  0  0  0  0  0  0
   16.3401   -0.3239   -3.6238 C   0  0  0  0  0  0  0  0  0  0  0  0
   16.7126    0.4028   -4.3406 H   0  0  0  0  0  0  0  0  0  0  0  0
   15.7926    0.1152   -2.4068 C   0  0  0  0  0  0  0  0  0  0  0  0
   15.7153    1.4935   -2.1003 N   0  0  0  0  0  0  0  0  0  0  0  0
   15.6452    2.5456   -3.0287 C   0  0  0  0  0  0  0  0  0  0  0  0
   15.6259    2.4287   -4.1122 H   0  0  0  0  0  0  0  0  0  0  0  0
   15.5757    3.7426   -2.3467 C   0  0  0  0  0  0  0  0  0  0  0  0
   15.5021    4.7419   -2.7765 H   0  0  0  0  0  0  0  0  0  0  0  0
   15.6098    3.4290   -0.9285 C   0  0  0  0  0  0  0  0  0  0  0  0
   15.5799    4.1523   -0.1136 H   0  0  0  0  0  0  0  0  0  0  0  0
   15.6907    2.0573   -0.8140 C   0  0  0  0  0  0  0  0  0  0  0  0
   15.7451    1.5016    0.1231 H   0  0  0  0  0  0  0  0  0  0  0  0
   15.3229   -0.8624   -1.5066 C   0  0  0  0  0  0  0  0  0  0  0  0
   14.8899   -0.5316   -0.5680 H   0  0  0  0  0  0  0  0  0  0  0  0
   13.2958   -3.0170   -0.6104 C   0  0  0  0  0  0  0  0  0  0  0  0
   12.4275   -3.0796   -1.4782 O   0  0  0  0  0  0  0  0  0  0  0  0
   13.0219   -2.6694    0.6988 N   0  0  0  0  0  0  0  0  0  0  0  0
   11.7190   -2.3126    1.2622 C   0  0  0  0  0  0  0  0  0  0  0  0
   11.6932   -1.2594    1.5585 H   0  0  0  0  0  0  0  0  0  0  0  0
   11.5020   -2.9193    2.1461 H   0  0  0  0  0  0  0  0  0  0  0  0
   10.9143   -2.4764    0.5381 H   0  0  0  0  0  0  0  0  0  0  0  0
   14.2237   -2.6315    1.3666 C   0  0  0  0  0  0  0  0  0  0  0  0
   14.3921   -2.3376    2.6906 N   0  0  0  0  0  0  0  0  0  0  0  0
   13.5792   -2.1262    3.2671 H   0  0  0  0  0  0  0  0  0  0  0  0
   15.3265   -2.3573    3.0959 H   0  0  0  0  0  0  0  0  0  0  0  0
   15.2200   -2.9093    0.5928 N   0  0  0  0  0  4  0  0  0  0  0  0
   16.1904   -2.8994    0.9004 H   0  0  0  0  0  0  0  0  0  0  0  0
   14.3001   -5.5967   -1.7684 C   0  0  0  0  0  0  0  0  0  0  0  0
   13.3525   -5.2459   -2.1681 H   0  0  0  0  0  0  0  0  0  0  0  0
   14.6429   -6.9479   -1.9603 C   0  0  0  0  0  0  0  0  0  0  0  0
   13.9729   -7.6209   -2.4889 H   0  0  0  0  0  0  0  0  0  0  0  0
  1  2  1  0
  2  3  2  0
  3  4  1  0
  3  5  1  0
  5  6  1  0
  5  7  2  0
  7  8  1  0
  8  9  1  0
  9 10  2  0
 10 11  1  0
 10 12  1  0
 12 13  1  0
 12 14  2  0
 14 15  1  0
 14 16  1  0
 16 17  1  0
 17 18  1  0
 18 19  1  0
 18 20  2  0
 20 21  1  0
 20 22  1  0
 22 23  1  0
 22 24  2  0
 24 25  1  0
 16 26  2  0
 26 27  1  0
  8 28  1  0
 28 29  2  0
 28 30  1  0
 30 31  1  0
 31 32  1  0
 31 33  1  0
 31 34  1  0
 30 35  1  0
 35 36  1  0
 36 37  1  0
 36 38  1  0
 35 39  2  0
 39 40  1  0
  7 41  1  0
 41 42  1  0
 41 43  2  0
 43 44  1  0
 43  2  1  0
 39  8  1  0
 26  9  1  0
 24 17  1  0
M  CHG  1  39   1
M  END
>  <score>  (53) 
6.1379

$$$$

     RDKit          3D

 45 48  0  0  0  0  0  0  0  0999 V2000
   16.1236   -8.4881   -1.6113 H   0  0  0  0  0  0  0  0  0  0  0  0
   15.8548   -7.4433   -1.4703 C   0  0  0  0  0  0  0  0  0  0  0  0
   16.7290   -6.5838   -0.8009 C   0  0  0  0  0  0  0  0  0  0  0  0
   17.6747   -6.9561   -0.4182 H   0  0  0  0  0  0  0  0  0  0  0  0
   16.3860   -5.2418   -0.6066 C   0  0  0  0  0  0  0  0  0  0  0  0
   17.0704   -4.5932   -0.0684 H   0  0  0  0  0  0  0  0  0  0  0  0
   15.1674   -4.7209   -1.0733 C   0  0  0  0  0  0  0  0  0  0  0  0
   14.8093   -3.2573   -0.7862 C   0  0  0  0  0  0  0  0  0  0  0  0
   15.3856   -2.2545   -1.7817 C   0  0  0  0  0  0  0  0  0  0  0  0
   15.9446   -2.6474   -3.0100 C   0  0  0  0  0  0  0  0  0  0  0  0
   16.0060   -3.6990   -3.2658 H   0  0  0  0  0  0  0  0  0  0  0  0
   16.4220   -1.6957   -3.9189 C   0  0  0  0  0  0  0  0  0  0  0  0
   16.8568   -2.0051   -4.8639 H   0  0  0  0  0  0  0  0  0  0  0  0
   16.3425   -0.3367   -3.6208 C   0  0  0  0  0  0  0  0  0  0  0  0
   16.7087    0.3882   -4.3477 H   0  0  0  0  0  0  0  0  0  0  0  0
   15.7962    0.0892   -2.3977 C   0  0  0  0  0  0  0  0  0  0  0  0
   15.7153    1.5260   -2.0931 C   0  0  0  0  0  0  0  0  0  0  0  0
   15.9658    2.4602   -2.9701 N   0  0  0  0  0  0  0  0  0  0  0  0
   15.7979    3.7972   -2.3687 C   0  0  0  0  0  0  0  0  0  0  0  0
   15.0222    4.3615   -2.8916 H   0  0  0  0  0  0  0  0  0  0  0  0
   16.7266    4.3674   -2.4400 H   0  0  0  0  0  0  0  0  0  0  0  0
   15.4101    3.5674   -0.9117 C   0  0  0  0  0  0  0  0  0  0  0  0
   14.4318    4.0060   -0.6793 H   0  0  0  0  0  0  0  0  0  0  0  0
   16.1644    3.9745   -0.2256 H   0  0  0  0  0  0  0  0  0  0  0  0
   15.3648    2.1081   -0.8959 N   0  0  0  0  0  0  0  0  0  0  0  0
   15.2049    1.5596   -0.0560 H   0  0  0  0  0  0  0  0  0  0  0  0
   15.3204   -0.8788   -1.4944 C   0  0  0  0  0  0  0  0  0  0  0  0
   14.8825   -0.5550   -0.5534 H   0  0  0  0  0  0  0  0  0  0  0  0
   13.2934   -3.0260   -0.6063 C   0  0  0  0  0  0  0  0  0  0  0  0
   12.4246   -3.0846   -1.4754 O   0  0  0  0  0  0  0  0  0  0  0  0
   13.0225   -2.6724    0.7012 N   0  0  0  0  0  0  0  0  0  0  0  0
   11.7168   -2.3123    1.2644 C   0  0  0  0  0  0  0  0  0  0  0  0
   11.6953   -1.2569    1.5595 H   0  0  0  0  0  0  0  0  0  0  0  0
   11.5019   -2.9217    2.1489 H   0  0  0  0  0  0  0  0  0  0  0  0
   10.9129   -2.4762    0.5362 H   0  0  0  0  0  0  0  0  0  0  0  0
   14.2258   -2.6299    1.3638 C   0  0  0  0  0  0  0  0  0  0  0  0
   14.3938   -2.3340    2.6882 N   0  0  0  0  0  0  0  0  0  0  0  0
   13.5793   -2.1271    3.2652 H   0  0  0  0  0  0  0  0  0  0  0  0
   15.3297   -2.3568    3.0923 H   0  0  0  0  0  0  0  0  0  0  0  0
   15.2222   -2.9066    0.5921 N   0  0  0  0  0  4  0  0  0  0  0  0
   16.1925   -2.9042    0.9038 H   0  0  0  0  0  0  0  0  0  0  0  0
   14.3017   -5.5944   -1.7694 C   0  0  0  0  0  0  0  0  0  0  0  0
   13.3532   -5.2407   -2.1633 H   0  0  0  0  0  0  0  0  0  0  0  0
   14.6431   -6.9449   -1.9605 C   0  0  0  0  0  0  0  0  0  0  0  0
   13.9721   -7.6169   -2.4887 H   0  0  0  0  0  0  0  0  0  0  0  0
  1  2  1  0
  2  3  2  0
  3  4  1  0
  3  5  1  0
  5  6  1  0
  5  7  2  0
  7  8  1  0
  8  9  1  0
  9 10  2  0
 10 11  1  0
 10 12  1  0
 12 13  1  0
 12 14  2  0
 14 15  1  0
 14 16  1  0
 16 17  1  0
 17 18  2  0
 18 19  1  0
 19 20  1  0
 19 21  1  0
 19 22  1  0
 22 23  1  0
 22 24  1  0
 22 25  1  0
 25 26  1  0
 16 27  2  0
 27 28  1  0
  8 29  1  0
 29 30  2  0
 29 31  1  0
 31 32  1  0
 32 33  1  0
 32 34  1  0
 32 35  1  0
 31 36  1  0
 36 37  1  0
 37 38  1  0
 37 39  1  0
 36 40  2  0
 40 41  1  0
  7 42  1  0
 42 43  1  0
 42 44  2  0
 44 45  1  0
 44  2  1  0
 40  8  1  0
 27  9  1  0
 25 17  1  0
M  CHG  1  40   1
M  END
>  <score>  (54) 
6.12693

$$$$

     RDKit          3D

 59 63  0  0  0  0  0  0  0  0999 V2000
   16.2844   -8.8870   -1.6267 H   0  0  0  0  0  0  0  0  0  0  0  0
   15.9483   -7.9019   -1.3215 C   0  0  0  0  0  0  0  0  0  0  0  0
   16.7899   -7.0742   -0.5699 C   0  0  0  0  0  0  0  0  0  0  0  0
   17.7811   -7.4179   -0.2892 H   0  0  0  0  0  0  0  0  0  0  0  0
   16.3661   -5.7932   -0.2022 C   0  0  0  0  0  0  0  0  0  0  0  0
   17.0410   -5.1353    0.3382 H   0  0  0  0  0  0  0  0  0  0  0  0
   15.0951   -5.3282   -0.5660 C   0  0  0  0  0  0  0  0  0  0  0  0
   14.7309   -3.8599   -0.4226 C   0  0  0  0  0  0  0  0  0  0  0  0
   15.1890   -3.1729   -1.7140 C   0  0  0  0  0  0  0  0  0  0  0  0
   15.3210   -3.8901   -2.9192 C   0  0  0  0  0  0  0  0  0  0  0  0
   15.1705   -4.9659   -2.9122 H   0  0  0  0  0  0  0  0  0  0  0  0
   15.6561   -3.2505   -4.1173 C   0  0  0  0  0  0  0  0  0  0  0  0
   15.7448   -3.8331   -5.0255 H   0  0  0  0  0  0  0  0  0  0  0  0
   15.8546   -1.8633   -4.1382 C   0  0  0  0  0  0  0  0  0  0  0  0
   16.1000   -1.3345   -5.0517 H   0  0  0  0  0  0  0  0  0  0  0  0
   15.7413   -1.1398   -2.9530 C   0  0  0  0  0  0  0  0  0  0  0  0
   15.8662    0.3068   -2.8873 C   0  0  0  0  0  0  0  0  0  0  0  0
   14.9689    1.1540   -3.5537 C   0  0  0  0  0  0  0  0  0  0  0  0
   14.2934    0.7495   -4.3046 H   0  0  0  0  0  0  0  0  0  0  0  0
   14.8410    2.4818   -3.1235 C   0  0  0  0  0  0  0  0  0  0  0  0
   14.0672    3.1170   -3.5378 H   0  0  0  0  0  0  0  0  0  0  0  0
   15.6264    2.9658   -2.0666 C   0  0  0  0  0  0  0  0  0  0  0  0
   15.2986    4.1480   -1.3898 N   0  0  0  0  0  0  0  0  0  0  0  0
   13.8546    4.4660   -1.2577 C   0  0  0  0  0  0  0  0  0  0  0  0
   13.2426    3.8406   -1.9159 H   0  0  0  0  0  0  0  0  0  0  0  0
   13.6823    5.5130   -1.5286 H   0  0  0  0  0  0  0  0  0  0  0  0
   13.4365    4.2439    0.2094 C   0  0  0  0  0  0  0  0  0  0  0  0
   13.6778    3.2182    0.5157 H   0  0  0  0  0  0  0  0  0  0  0  0
   12.3538    4.3773    0.2910 H   0  0  0  0  0  0  0  0  0  0  0  0
   14.1177    5.1646    1.0912 O   0  0  0  0  0  0  0  0  0  0  0  0
   15.4214    5.5868    0.6270 C   0  0  0  0  0  0  0  0  0  0  0  0
   16.0487    5.8721    1.4762 H   0  0  0  0  0  0  0  0  0  0  0  0
   15.3049    6.4643   -0.0150 H   0  0  0  0  0  0  0  0  0  0  0  0
   16.1122    4.4926   -0.1969 C   0  0  0  0  0  0  0  0  0  0  0  0
   17.1015    4.8215   -0.5211 H   0  0  0  0  0  0  0  0  0  0  0  0
   16.2273    3.6082    0.4431 H   0  0  0  0  0  0  0  0  0  0  0  0
   16.6466    2.1628   -1.5581 C   0  0  0  0  0  0  0  0  0  0  0  0
   17.2664    2.5708   -0.7705 H   0  0  0  0  0  0  0  0  0  0  0  0
   16.7435    0.8286   -1.9389 C   0  0  0  0  0  0  0  0  0  0  0  0
   17.4275    0.1581   -1.4270 H   0  0  0  0  0  0  0  0  0  0  0  0
   15.4371   -1.8011   -1.7547 C   0  0  0  0  0  0  0  0  0  0  0  0
   15.3681   -1.2215   -0.8398 H   0  0  0  0  0  0  0  0  0  0  0  0
   13.2290   -3.6156   -0.1336 C   0  0  0  0  0  0  0  0  0  0  0  0
   12.2689   -4.0002   -0.8004 O   0  0  0  0  0  0  0  0  0  0  0  0
   13.0752   -2.9198    1.0507 N   0  0  0  0  0  0  0  0  0  0  0  0
   11.8428   -2.3458    1.6146 C   0  0  0  0  0  0  0  0  0  0  0  0
   11.5780   -2.8324    2.5608 H   0  0  0  0  0  0  0  0  0  0  0  0
   10.9972   -2.4600    0.9255 H   0  0  0  0  0  0  0  0  0  0  0  0
   11.9682   -1.2740    1.8111 H   0  0  0  0  0  0  0  0  0  0  0  0
   14.3388   -2.7306    1.5557 C   0  0  0  0  0  0  0  0  0  0  0  0
   14.5851   -2.0700    2.7224 N   0  0  0  0  0  0  0  0  0  0  0  0
   15.5107   -2.1699    3.1246 H   0  0  0  0  0  0  0  0  0  0  0  0
   13.7956   -1.8987    3.3427 H   0  0  0  0  0  0  0  0  0  0  0  0
   15.2690   -3.2317    0.8052 N   0  0  0  0  0  4  0  0  0  0  0  0
   16.2675   -3.1281    1.0000 H   0  0  0  0  0  0  0  0  0  0  0  0
   14.2468   -6.1796   -1.2962 C   0  0  0  0  0  0  0  0  0  0  0  0
   13.2717   -5.8247   -1.6186 H   0  0  0  0  0  0  0  0  0  0  0  0
   14.6752   -7.4523   -1.6835 C   0  0  0  0  0  0  0  0  0  0  0  0
   14.0267   -8.0832   -2.2853 H   0  0  0  0  0  0  0  0  0  0  0  0
  1  2  1  0
  2  3  2  0
  3  4  1  0
  3  5  1  0
  5  6  1  0
  5  7  2  0
  7  8  1  0
  8  9  1  0
  9 10  2  0
 10 11  1  0
 10 12  1  0
 12 13  1  0
 12 14  2  0
 14 15  1  0
 14 16  1  0
 16 17  1  0
 17 18  2  0
 18 19  1  0
 18 20  1  0
 20 21  1  0
 20 22  2  0
 22 23  1  0
 23 24  1  0
 24 25  1  0
 24 26  1  0
 24 27  1  0
 27 28  1  0
 27 29  1  0
 27 30  1  0
 30 31  1  0
 31 32  1  0
 31 33  1  0
 31 34  1  0
 34 35  1  0
 34 36  1  0
 22 37  1  0
 37 38  1  0
 37 39  2  0
 39 40  1  0
 16 41  2  0
 41 42  1  0
  8 43  1  0
 43 44  2  0
 43 45  1  0
 45 46  1  0
 46 47  1  0
 46 48  1  0
 46 49  1  0
 45 50  1  0
 50 51  1  0
 51 52  1  0
 51 53  1  0
 50 54  2  0
 54 55  1  0
  7 56  1  0
 56 57  1  0
 56 58  2  0
 58 59  1  0
 58  2  1  0
 54  8  1  0
 41  9  1  0
 39 17  1  0
 34 23  1  0
M  CHG  1  54   1
M  END
>  <score>  (55) 
6.12641

$$$$

     RDKit          3D

 53 57  0  0  0  0  0  0  0  0999 V2000
   16.2166   -8.8353   -1.6800 H   0  0  0  0  0  0  0  0  0  0  0  0
   15.9479   -7.8129   -1.4261 C   0  0  0  0  0  0  0  0  0  0  0  0
   16.8293   -7.0169   -0.6849 C   0  0  0  0  0  0  0  0  0  0  0  0
   17.7925   -7.4155   -0.3749 H   0  0  0  0  0  0  0  0  0  0  0  0
   16.4790   -5.7001   -0.3567 C   0  0  0  0  0  0  0  0  0  0  0  0
   17.1796   -5.0865    0.2007 H   0  0  0  0  0  0  0  0  0  0  0  0
   15.2433   -5.1660   -0.7543 C   0  0  0  0  0  0  0  0  0  0  0  0
   14.8772   -3.7151   -0.4957 C   0  0  0  0  0  0  0  0  0  0  0  0
   15.3243   -2.8429   -1.6699 C   0  0  0  0  0  0  0  0  0  0  0  0
   15.6500   -3.3533   -2.9378 C   0  0  0  0  0  0  0  0  0  0  0  0
   15.7091   -4.4254   -3.0902 H   0  0  0  0  0  0  0  0  0  0  0  0
   15.8962   -2.4957   -4.0213 C   0  0  0  0  0  0  0  0  0  0  0  0
   16.0948   -2.9266   -4.9939 H   0  0  0  0  0  0  0  0  0  0  0  0
   15.8892   -1.1042   -3.8545 C   0  0  0  0  0  0  0  0  0  0  0  0
   16.1019   -0.4576   -4.7052 H   0  0  0  0  0  0  0  0  0  0  0  0
   15.6140   -0.5753   -2.5845 C   0  0  0  0  0  0  0  0  0  0  0  0
   15.5848    0.8570   -2.2656 C   0  0  0  0  0  0  0  0  0  0  0  0
   15.3076    1.1797   -1.0308 N   0  0  0  0  0  0  0  0  0  0  0  0
   15.3629    2.5415   -1.0055 C   0  0  0  0  0  0  0  0  0  0  0  0
   15.1397    3.2684    0.1309 C   0  0  0  0  0  0  0  0  0  0  0  0
   14.9090    2.7174    1.0312 H   0  0  0  0  0  0  0  0  0  0  0  0
   15.2334    4.6588    0.1055 C   0  0  0  0  0  0  0  0  0  0  0  0
   14.9627    5.3351    1.3778 C   0  0  0  0  0  0  0  0  0  0  0  0
   14.0147    5.0123    2.0722 O   0  0  0  0  0  0  0  0  0  0  0  0
   15.8908    6.1170    2.0078 N   0  0  0  0  0  0  0  0  0  0  0  0
   15.6259    6.5088    2.9055 H   0  0  0  0  0  0  0  0  0  0  0  0
   16.6421    6.5212    1.4660 H   0  0  0  0  0  0  0  0  0  0  0  0
   15.5615    5.2835   -1.1239 C   0  0  0  0  0  0  0  0  0  0  0  0
   15.6256    6.3634   -1.1993 H   0  0  0  0  0  0  0  0  0  0  0  0
   15.8030    4.5097   -2.2837 C   0  0  0  0  0  0  0  0  0  0  0  0
   16.0563    4.9781   -3.2298 H   0  0  0  0  0  0  0  0  0  0  0  0
   15.6910    3.1150   -2.2133 C   0  0  0  0  0  0  0  0  0  0  0  0
   15.8002    2.0063   -3.0330 N   0  0  0  0  0  0  0  0  0  0  0  0
   15.9735    2.0262   -4.0314 H   0  0  0  0  0  0  0  0  0  0  0  0
   15.3231   -1.4615   -1.5286 C   0  0  0  0  0  0  0  0  0  0  0  0
   15.0839   -1.0418   -0.5556 H   0  0  0  0  0  0  0  0  0  0  0  0
   13.3668   -3.4987   -0.2508 C   0  0  0  0  0  0  0  0  0  0  0  0
   12.4438   -3.7831   -1.0130 O   0  0  0  0  0  0  0  0  0  0  0  0
   13.1632   -2.8672    0.9591 N   0  0  0  0  0  0  0  0  0  0  0  0
   11.9194   -2.2624    1.4543 C   0  0  0  0  0  0  0  0  0  0  0  0
   11.6059   -2.7196    2.4015 H   0  0  0  0  0  0  0  0  0  0  0  0
   12.0499   -1.1860    1.6224 H   0  0  0  0  0  0  0  0  0  0  0  0
   11.1067   -2.3886    0.7309 H   0  0  0  0  0  0  0  0  0  0  0  0
   14.4027   -2.6996    1.5244 C   0  0  0  0  0  0  0  0  0  0  0  0
   14.5971   -2.0373    2.6967 N   0  0  0  0  0  0  0  0  0  0  0  0
   13.7767   -1.8158    3.2561 H   0  0  0  0  0  0  0  0  0  0  0  0
   15.4925   -2.1564    3.1631 H   0  0  0  0  0  0  0  0  0  0  0  0
   15.3541   -3.2169    0.8157 N   0  0  0  0  0  4  0  0  0  0  0  0
   16.3378   -3.1667    1.0790 H   0  0  0  0  0  0  0  0  0  0  0  0
   14.3698   -5.9765   -1.4970 C   0  0  0  0  0  0  0  0  0  0  0  0
   13.4175   -5.5780   -1.8318 H   0  0  0  0  0  0  0  0  0  0  0  0
   14.7169   -7.2888   -1.8356 C   0  0  0  0  0  0  0  0  0  0  0  0
   14.0359   -7.8935   -2.4290 H   0  0  0  0  0  0  0  0  0  0  0  0
  1  2  1  0
  2  3  2  0
  3  4  1  0
  3  5  1  0
  5  6  1  0
  5  7  2  0
  7  8  1  0
  8  9  1  0
  9 10  2  0
 10 11  1  0
 10 12  1  0
 12 13  1  0
 12 14  2  0
 14 15  1  0
 14 16  1  0
 16 17  1  0
 17 18  2  0
 18 19  1  0
 19 20  2  0
 20 21  1  0
 20 22  1  0
 22 23  1  0
 23 24  2  0
 23 25  1  0
 25 26  1  0
 25 27  1  0
 22 28  2  0
 28 29  1  0
 28 30  1  0
 30 31  1  0
 30 32  2  0
 32 33  1  0
 33 34  1  0
 16 35  2  0
 35 36  1  0
  8 37  1  0
 37 38  2  0
 37 39  1  0
 39 40  1  0
 40 41  1  0
 40 42  1  0
 40 43  1  0
 39 44  1  0
 44 45  1  0
 45 46  1  0
 45 47  1  0
 44 48  2  0
 48 49  1  0
  7 50  1  0
 50 51  1  0
 50 52  2  0
 52 53  1  0
 52  2  1  0
 48  8  1  0
 35  9  1  0
 33 17  1  0
 32 19  1  0
M  CHG  1  48   1
M  END
>  <score>  (56) 
6.11349

$$$$

     RDKit          3D

 49 53  0  0  0  0  0  0  0  0999 V2000
   16.1692   -8.4127   -1.6733 H   0  0  0  0  0  0  0  0  0  0  0  0
   15.9023   -7.3779   -1.4902 C   0  0  0  0  0  0  0  0  0  0  0  0
   16.7766   -6.5497   -0.7807 C   0  0  0  0  0  0  0  0  0  0  0  0
   17.7283   -6.9248   -0.4207 H   0  0  0  0  0  0  0  0  0  0  0  0
   16.4285   -5.2241   -0.5261 C   0  0  0  0  0  0  0  0  0  0  0  0
   17.1086   -4.5730    0.0173 H   0  0  0  0  0  0  0  0  0  0  0  0
   15.2000   -4.7152   -0.9663 C   0  0  0  0  0  0  0  0  0  0  0  0
   14.8468   -3.2698   -0.6914 C   0  0  0  0  0  0  0  0  0  0  0  0
   15.4403   -2.3514   -1.7483 C   0  0  0  0  0  0  0  0  0  0  0  0
   15.9315   -2.7988   -2.9902 C   0  0  0  0  0  0  0  0  0  0  0  0
   15.9575   -3.8629   -3.2027 H   0  0  0  0  0  0  0  0  0  0  0  0
   16.3656   -1.8800   -3.9598 C   0  0  0  0  0  0  0  0  0  0  0  0
   16.7188   -2.2263   -4.9229 H   0  0  0  0  0  0  0  0  0  0  0  0
   16.3318   -0.5082   -3.6958 C   0  0  0  0  0  0  0  0  0  0  0  0
   16.6843    0.2054   -4.4348 H   0  0  0  0  0  0  0  0  0  0  0  0
   15.8502   -0.0651   -2.4622 C   0  0  0  0  0  0  0  0  0  0  0  0
   15.7811    1.3230   -2.0727 C   0  0  0  0  0  0  0  0  0  0  0  0
   15.5884    2.4344   -2.8599 O   0  0  0  0  0  0  0  0  0  0  0  0
   15.5282    3.4778   -1.9709 C   0  0  0  0  0  0  0  0  0  0  0  0
   15.3849    4.8419   -2.2056 C   0  0  0  0  0  0  0  0  0  0  0  0
   15.3055    5.2220   -3.2190 H   0  0  0  0  0  0  0  0  0  0  0  0
   15.3411    5.7087   -1.1057 C   0  0  0  0  0  0  0  0  0  0  0  0
   15.2433    6.7628   -1.2606 H   0  0  0  0  0  0  0  0  0  0  0  0
   15.4293    5.2342    0.2083 C   0  0  0  0  0  0  0  0  0  0  0  0
   15.3637    5.9192    1.0463 H   0  0  0  0  0  0  0  0  0  0  0  0
   15.6014    3.8710    0.4382 C   0  0  0  0  0  0  0  0  0  0  0  0
   15.6828    3.4548    1.4373 H   0  0  0  0  0  0  0  0  0  0  0  0
   15.6608    3.0301   -0.6633 C   0  0  0  0  0  0  0  0  0  0  0  0
   15.8485    1.6403   -0.7417 C   0  0  0  0  0  0  0  0  0  0  0  0
   16.0011    0.9674    0.0959 H   0  0  0  0  0  0  0  0  0  0  0  0
   15.4023   -0.9856   -1.5156 C   0  0  0  0  0  0  0  0  0  0  0  0
   14.9982   -0.6150   -0.5752 H   0  0  0  0  0  0  0  0  0  0  0  0
   13.3266   -3.0356   -0.5559 C   0  0  0  0  0  0  0  0  0  0  0  0
   12.4791   -3.1569   -1.4357 O   0  0  0  0  0  0  0  0  0  0  0  0
   13.0218   -2.6446    0.7338 N   0  0  0  0  0  0  0  0  0  0  0  0
   11.6853   -2.3225    1.2424 C   0  0  0  0  0  0  0  0  0  0  0  0
   11.4295   -2.9686    2.0888 H   0  0  0  0  0  0  0  0  0  0  0  0
   10.9287   -2.4718    0.4632 H   0  0  0  0  0  0  0  0  0  0  0  0
   11.6313   -1.2764    1.5654 H   0  0  0  0  0  0  0  0  0  0  0  0
   14.2073   -2.6284    1.4364 C   0  0  0  0  0  0  0  0  0  0  0  0
   14.3535   -2.3977    2.7752 N   0  0  0  0  0  0  0  0  0  0  0  0
   13.5605   -2.0137    3.2869 H   0  0  0  0  0  0  0  0  0  0  0  0
   15.2967   -2.2969    3.1504 H   0  0  0  0  0  0  0  0  0  0  0  0
   15.2316   -2.8953    0.6904 N   0  0  0  0  0  4  0  0  0  0  0  0
   16.1875   -2.9454    1.0451 H   0  0  0  0  0  0  0  0  0  0  0  0
   14.3349   -5.5429   -1.7019 C   0  0  0  0  0  0  0  0  0  0  0  0
   13.3924   -5.1494   -2.0766 H   0  0  0  0  0  0  0  0  0  0  0  0
   14.6848   -6.8719   -1.9589 C   0  0  0  0  0  0  0  0  0  0  0  0
   14.0086   -7.5080   -2.5202 H   0  0  0  0  0  0  0  0  0  0  0  0
  1  2  1  0
  2  3  2  0
  3  4  1  0
  3  5  1  0
  5  6  1  0
  5  7  2  0
  7  8  1  0
  8  9  1  0
  9 10  2  0
 10 11  1  0
 10 12  1  0
 12 13  1  0
 12 14  2  0
 14 15  1  0
 14 16  1  0
 16 17  1  0
 17 18  1  0
 18 19  1  0
 19 20  2  0
 20 21  1  0
 20 22  1  0
 22 23  1  0
 22 24  2  0
 24 25  1  0
 24 26  1  0
 26 27  1  0
 26 28  2  0
 28 29  1  0
 29 30  1  0
 16 31  2  0
 31 32  1  0
  8 33  1  0
 33 34  2  0
 33 35  1  0
 35 36  1  0
 36 37  1  0
 36 38  1  0
 36 39  1  0
 35 40  1  0
 40 41  1  0
 41 42  1  0
 41 43  1  0
 40 44  2  0
 44 45  1  0
  7 46  1  0
 46 47  1  0
 46 48  2  0
 48 49  1  0
 48  2  1  0
 44  8  1  0
 31  9  1  0
 29 17  2  0
 28 19  1  0
M  CHG  1  44   1
M  END
>  <score>  (57) 
6.11338

$$$$

     RDKit          3D

 46 49  0  0  0  0  0  0  0  0999 V2000
   16.1269   -8.4906   -1.6108 H   0  0  0  0  0  0  0  0  0  0  0  0
   15.8545   -7.4471   -1.4689 C   0  0  0  0  0  0  0  0  0  0  0  0
   16.7265   -6.5878   -0.7978 C   0  0  0  0  0  0  0  0  0  0  0  0
   17.6765   -6.9550   -0.4200 H   0  0  0  0  0  0  0  0  0  0  0  0
   16.3831   -5.2450   -0.6068 C   0  0  0  0  0  0  0  0  0  0  0  0
   17.0705   -4.5974   -0.0713 H   0  0  0  0  0  0  0  0  0  0  0  0
   15.1638   -4.7233   -1.0714 C   0  0  0  0  0  0  0  0  0  0  0  0
   14.8061   -3.2526   -0.7860 C   0  0  0  0  0  0  0  0  0  0  0  0
   15.3887   -2.2463   -1.7845 C   0  0  0  0  0  0  0  0  0  0  0  0
   15.9440   -2.6427   -3.0125 C   0  0  0  0  0  0  0  0  0  0  0  0
   16.0083   -3.6949   -3.2707 H   0  0  0  0  0  0  0  0  0  0  0  0
   16.4220   -1.6904   -3.9214 C   0  0  0  0  0  0  0  0  0  0  0  0
   16.8621   -2.0073   -4.8619 H   0  0  0  0  0  0  0  0  0  0  0  0
   16.3397   -0.3258   -3.6271 C   0  0  0  0  0  0  0  0  0  0  0  0
   16.7131    0.4010   -4.3428 H   0  0  0  0  0  0  0  0  0  0  0  0
   15.7957    0.1088   -2.4099 C   0  0  0  0  0  0  0  0  0  0  0  0
   15.7195    1.5543   -2.0918 C   0  0  0  0  0  0  0  0  0  0  0  0
   15.3691    2.5071   -3.0714 C   0  0  0  0  0  0  0  0  0  0  0  0
   15.1348    2.1758   -4.0792 H   0  0  0  0  0  0  0  0  0  0  0  0
   15.2460    3.8702   -2.7261 C   0  0  0  0  0  0  0  0  0  0  0  0
   14.5553    5.0947   -3.7605 Cl  0  0  0  0  0  0  0  0  0  0  0  0
   15.5603    4.2963   -1.4471 C   0  0  0  0  0  0  0  0  0  0  0  0
   15.4769    5.3550   -1.2250 H   0  0  0  0  0  0  0  0  0  0  0  0
   15.9098    3.3792   -0.4661 C   0  0  0  0  0  0  0  0  0  0  0  0
   16.2362    3.9426    1.1489 Cl  0  0  0  0  0  0  0  0  0  0  0  0
   15.9740    2.0187   -0.7875 C   0  0  0  0  0  0  0  0  0  0  0  0
   16.2520    1.3244   -0.0056 H   0  0  0  0  0  0  0  0  0  0  0  0
   15.3271   -0.8638   -1.5046 C   0  0  0  0  0  0  0  0  0  0  0  0
   14.8911   -0.5305   -0.5674 H   0  0  0  0  0  0  0  0  0  0  0  0
   13.2928   -3.0213   -0.6106 C   0  0  0  0  0  0  0  0  0  0  0  0
   12.4228   -3.0782   -1.4791 O   0  0  0  0  0  0  0  0  0  0  0  0
   13.0190   -2.6688    0.6985 N   0  0  0  0  0  0  0  0  0  0  0  0
   11.7181   -2.3127    1.2617 C   0  0  0  0  0  0  0  0  0  0  0  0
   11.6931   -1.2590    1.5592 H   0  0  0  0  0  0  0  0  0  0  0  0
   10.9153   -2.4762    0.5377 H   0  0  0  0  0  0  0  0  0  0  0  0
   11.5012   -2.9206    2.1461 H   0  0  0  0  0  0  0  0  0  0  0  0
   14.2249   -2.6310    1.3668 C   0  0  0  0  0  0  0  0  0  0  0  0
   14.3906   -2.3388    2.6903 N   0  0  0  0  0  0  0  0  0  0  0  0
   15.3257   -2.3581    3.0967 H   0  0  0  0  0  0  0  0  0  0  0  0
   13.5793   -2.1266    3.2679 H   0  0  0  0  0  0  0  0  0  0  0  0
   15.2182   -2.9066    0.5902 N   0  0  0  0  0  4  0  0  0  0  0  0
   16.1917   -2.8970    0.8973 H   0  0  0  0  0  0  0  0  0  0  0  0
   14.2994   -5.5986   -1.7685 C   0  0  0  0  0  0  0  0  0  0  0  0
   13.3525   -5.2486   -2.1706 H   0  0  0  0  0  0  0  0  0  0  0  0
   14.6429   -6.9498   -1.9598 C   0  0  0  0  0  0  0  0  0  0  0  0
   13.9729   -7.6224   -2.4891 H   0  0  0  0  0  0  0  0  0  0  0  0
  1  2  1  0
  2  3  2  0
  3  4  1  0
  3  5  1  0
  5  6  1  0
  5  7  2  0
  7  8  1  0
  8  9  1  0
  9 10  2  0
 10 11  1  0
 10 12  1  0
 12 13  1  0
 12 14  2  0
 14 15  1  0
 14 16  1  0
 16 17  1  0
 17 18  2  0
 18 19  1  0
 18 20  1  0
 20 21  1  0
 20 22  2  0
 22 23  1  0
 22 24  1  0
 24 25  1  0
 24 26  2  0
 26 27  1  0
 16 28  2  0
 28 29  1  0
  8 30  1  0
 30 31  2  0
 30 32  1  0
 32 33  1  0
 33 34  1  0
 33 35  1  0
 33 36  1  0
 32 37  1  0
 37 38  1  0
 38 39  1  0
 38 40  1  0
 37 41  2  0
 41 42  1  0
  7 43  1  0
 43 44  1  0
 43 45  2  0
 45 46  1  0
 45  2  1  0
 41  8  1  0
 28  9  1  0
 26 17  1  0
M  CHG  1  41   1
M  END
>  <score>  (58) 
6.10532

$$$$

     RDKit          3D

 56 59  0  0  0  0  0  0  0  0999 V2000
   16.0956   -8.4208   -1.6474 H   0  0  0  0  0  0  0  0  0  0  0  0
   15.8568   -7.3736   -1.4892 C   0  0  0  0  0  0  0  0  0  0  0  0
   16.7525   -6.5473   -0.8030 C   0  0  0  0  0  0  0  0  0  0  0  0
   17.6890   -6.9434   -0.4224 H   0  0  0  0  0  0  0  0  0  0  0  0
   16.4387   -5.2034   -0.5883 C   0  0  0  0  0  0  0  0  0  0  0  0
   17.1380   -4.5684   -0.0501 H   0  0  0  0  0  0  0  0  0  0  0  0
   15.2162   -4.6759   -1.0361 C   0  0  0  0  0  0  0  0  0  0  0  0
   14.8347   -3.2397   -0.7375 C   0  0  0  0  0  0  0  0  0  0  0  0
   15.3723   -2.2436   -1.7514 C   0  0  0  0  0  0  0  0  0  0  0  0
   15.9284   -2.6571   -2.9719 C   0  0  0  0  0  0  0  0  0  0  0  0
   15.9863   -3.7131   -3.2078 H   0  0  0  0  0  0  0  0  0  0  0  0
   16.4135   -1.7259   -3.8929 C   0  0  0  0  0  0  0  0  0  0  0  0
   16.8385   -2.0441   -4.8361 H   0  0  0  0  0  0  0  0  0  0  0  0
   16.3606   -0.3676   -3.6069 C   0  0  0  0  0  0  0  0  0  0  0  0
   16.7526    0.3559   -4.3204 H   0  0  0  0  0  0  0  0  0  0  0  0
   15.7856    0.0750   -2.4094 C   0  0  0  0  0  0  0  0  0  0  0  0
   15.7266    1.5121   -2.1348 C   0  0  0  0  0  0  0  0  0  0  0  0
   16.5000    2.2958   -2.6702 O   0  0  0  0  0  0  0  0  0  0  0  0
   14.8060    2.0007   -1.2385 N   0  0  0  0  0  0  0  0  0  0  0  0
   14.3485    1.2994   -0.6692 H   0  0  0  0  0  0  0  0  0  0  0  0
   14.9593    3.3077   -0.6394 C   0  0  0  0  0  0  0  0  0  0  0  0
   15.1185    4.0815   -1.4071 H   0  0  0  0  0  0  0  0  0  0  0  0
   13.6734    3.6205    0.1246 C   0  0  0  0  0  0  0  0  0  0  0  0
   13.4076    2.7938    0.7873 H   0  0  0  0  0  0  0  0  0  0  0  0
   12.8472    3.7554   -0.5839 H   0  0  0  0  0  0  0  0  0  0  0  0
   13.8744    4.8851    0.9595 C   0  0  0  0  0  0  0  0  0  0  0  0
   12.9710    5.1257    1.4983 H   0  0  0  0  0  0  0  0  0  0  0  0
   14.0899    5.7194    0.2868 H   0  0  0  0  0  0  0  0  0  0  0  0
   15.0215    4.7494    1.9591 C   0  0  0  0  0  0  0  0  0  0  0  0
   14.8266    3.9449    2.6799 H   0  0  0  0  0  0  0  0  0  0  0  0
   15.1021    5.6841    2.5271 H   0  0  0  0  0  0  0  0  0  0  0  0
   16.3035    4.4756    1.1662 C   0  0  0  0  0  0  0  0  0  0  0  0
   17.1593    4.3653    1.8419 H   0  0  0  0  0  0  0  0  0  0  0  0
   16.4710    5.3378    0.5148 H   0  0  0  0  0  0  0  0  0  0  0  0
   16.1695    3.2196    0.2985 C   0  0  0  0  0  0  0  0  0  0  0  0
   16.0518    2.3453    0.9464 H   0  0  0  0  0  0  0  0  0  0  0  0
   17.0791    3.0734   -0.2936 H   0  0  0  0  0  0  0  0  0  0  0  0
   15.2770   -0.8680   -1.4942 C   0  0  0  0  0  0  0  0  0  0  0  0
   14.8166   -0.5341   -0.5645 H   0  0  0  0  0  0  0  0  0  0  0  0
   13.3156   -3.0587   -0.5573 C   0  0  0  0  0  0  0  0  0  0  0  0
   12.4464   -3.2134   -1.4120 O   0  0  0  0  0  0  0  0  0  0  0  0
   13.0503   -2.6817    0.7438 N   0  0  0  0  0  0  0  0  0  0  0  0
   11.7489   -2.3135    1.2964 C   0  0  0  0  0  0  0  0  0  0  0  0
   10.9502   -2.4841    0.5650 H   0  0  0  0  0  0  0  0  0  0  0  0
   11.7408   -1.2536    1.5726 H   0  0  0  0  0  0  0  0  0  0  0  0
   11.5218   -2.9062    2.1896 H   0  0  0  0  0  0  0  0  0  0  0  0
   14.2612   -2.5930    1.3947 C   0  0  0  0  0  0  0  0  0  0  0  0
   14.4480   -2.2271    2.6957 N   0  0  0  0  0  0  0  0  0  0  0  0
   15.3843   -2.2938    3.0944 H   0  0  0  0  0  0  0  0  0  0  0  0
   13.6381   -2.1215    3.3023 H   0  0  0  0  0  0  0  0  0  0  0  0
   15.2553   -2.8949    0.6330 N   0  0  0  0  0  4  0  0  0  0  0  0
   16.2150   -2.9952    0.9671 H   0  0  0  0  0  0  0  0  0  0  0  0
   14.3330   -5.5075   -1.7411 C   0  0  0  0  0  0  0  0  0  0  0  0
   13.3876   -5.1126   -2.1034 H   0  0  0  0  0  0  0  0  0  0  0  0
   14.6502   -6.8493   -1.9650 C   0  0  0  0  0  0  0  0  0  0  0  0
   13.9508   -7.4823   -2.5006 H   0  0  0  0  0  0  0  0  0  0  0  0
  1  2  1  0
  2  3  2  0
  3  4  1  0
  3  5  1  0
  5  6  1  0
  5  7  2  0
  7  8  1  0
  8  9  1  0
  9 10  2  0
 10 11  1  0
 10 12  1  0
 12 13  1  0
 12 14  2  0
 14 15  1  0
 14 16  1  0
 16 17  1  0
 17 18  2  0
 17 19  1  0
 19 20  1  0
 19 21  1  0
 21 22  1  0
 21 23  1  0
 23 24  1  0
 23 25  1  0
 23 26  1  0
 26 27  1  0
 26 28  1  0
 26 29  1  0
 29 30  1  0
 29 31  1  0
 29 32  1  0
 32 33  1  0
 32 34  1  0
 32 35  1  0
 35 36  1  0
 35 37  1  0
 16 38  2  0
 38 39  1  0
  8 40  1  0
 40 41  2  0
 40 42  1  0
 42 43  1  0
 43 44  1  0
 43 45  1  0
 43 46  1  0
 42 47  1  0
 47 48  1  0
 48 49  1  0
 48 50  1  0
 47 51  2  0
 51 52  1  0
  7 53  1  0
 53 54  1  0
 53 55  2  0
 55 56  1  0
 55  2  1  0
 51  8  1  0
 38  9  1  0
 35 21  1  0
M  CHG  1  51   1
M  END
>  <score>  (59) 
6.09691

$$$$

     RDKit          3D

 49 52  0  0  0  0  0  0  0  0999 V2000
   16.1192   -8.3760   -1.6702 H   0  0  0  0  0  0  0  0  0  0  0  0
   15.8712   -7.3373   -1.4703 C   0  0  0  0  0  0  0  0  0  0  0  0
   16.7656   -6.5155   -0.7732 C   0  0  0  0  0  0  0  0  0  0  0  0
   17.7125   -6.9159   -0.4231 H   0  0  0  0  0  0  0  0  0  0  0  0
   16.4445   -5.1742   -0.5309 C   0  0  0  0  0  0  0  0  0  0  0  0
   17.1404   -4.5475    0.0211 H   0  0  0  0  0  0  0  0  0  0  0  0
   15.2208   -4.6416   -0.9715 C   0  0  0  0  0  0  0  0  0  0  0  0
   14.8349   -3.2009   -0.6687 C   0  0  0  0  0  0  0  0  0  0  0  0
   15.4169   -2.2221   -1.6801 C   0  0  0  0  0  0  0  0  0  0  0  0
   15.9616   -2.6570   -2.9044 C   0  0  0  0  0  0  0  0  0  0  0  0
   16.0155   -3.7193   -3.1263 H   0  0  0  0  0  0  0  0  0  0  0  0
   16.4187   -1.7356   -3.8538 C   0  0  0  0  0  0  0  0  0  0  0  0
   16.8405   -2.0721   -4.7956 H   0  0  0  0  0  0  0  0  0  0  0  0
   16.3265   -0.3649   -3.5939 C   0  0  0  0  0  0  0  0  0  0  0  0
   16.6867    0.3536   -4.3241 H   0  0  0  0  0  0  0  0  0  0  0  0
   15.7776    0.0891   -2.3889 C   0  0  0  0  0  0  0  0  0  0  0  0
   15.6388    1.5632   -2.1103 C   0  0  0  0  0  0  0  0  0  0  0  0
   16.3818    2.1238   -2.6862 H   0  0  0  0  0  0  0  0  0  0  0  0
   15.8213    1.7611   -1.0475 H   0  0  0  0  0  0  0  0  0  0  0  0
   14.2511    2.0174   -2.4857 C   0  0  0  0  0  0  0  0  0  0  0  0
   13.2210    1.9982   -1.5366 C   0  0  0  0  0  0  0  0  0  0  0  0
   13.4328    1.6627   -0.5273 H   0  0  0  0  0  0  0  0  0  0  0  0
   11.9260    2.4017   -1.8836 C   0  0  0  0  0  0  0  0  0  0  0  0
   11.1344    2.3864   -1.1418 H   0  0  0  0  0  0  0  0  0  0  0  0
   11.6468    2.8296   -3.1851 C   0  0  0  0  0  0  0  0  0  0  0  0
   10.0333    3.3383   -3.6139 Cl  0  0  0  0  0  0  0  0  0  0  0  0
   12.6698    2.8451   -4.1387 C   0  0  0  0  0  0  0  0  0  0  0  0
   12.4525    3.1778   -5.1489 H   0  0  0  0  0  0  0  0  0  0  0  0
   13.9643    2.4346   -3.7927 C   0  0  0  0  0  0  0  0  0  0  0  0
   14.7509    2.4311   -4.5406 H   0  0  0  0  0  0  0  0  0  0  0  0
   15.3291   -0.8414   -1.4435 C   0  0  0  0  0  0  0  0  0  0  0  0
   14.8909   -0.4855   -0.5155 H   0  0  0  0  0  0  0  0  0  0  0  0
   13.3019   -3.0257   -0.5619 C   0  0  0  0  0  0  0  0  0  0  0  0
   12.4785   -3.1363   -1.4686 O   0  0  0  0  0  0  0  0  0  0  0  0
   12.9520   -2.7693    0.7536 N   0  0  0  0  0  0  0  0  0  0  0  0
   11.6240   -2.3550    1.2248 C   0  0  0  0  0  0  0  0  0  0  0  0
   10.8772   -2.4711    0.4247 H   0  0  0  0  0  0  0  0  0  0  0  0
   11.6305   -1.2980    1.5212 H   0  0  0  0  0  0  0  0  0  0  0  0
   11.3040   -2.9513    2.0923 H   0  0  0  0  0  0  0  0  0  0  0  0
   14.1355   -2.6958    1.4640 C   0  0  0  0  0  0  0  0  0  0  0  0
   14.2766   -2.4612    2.7952 N   0  0  0  0  0  0  0  0  0  0  0  0
   13.4595   -2.1785    3.3309 H   0  0  0  0  0  0  0  0  0  0  0  0
   15.2025   -2.1802    3.1153 H   0  0  0  0  0  0  0  0  0  0  0  0
   15.1875   -2.8691    0.7294 N   0  0  0  0  0  4  0  0  0  0  0  0
   16.1183   -3.0308    1.1223 H   0  0  0  0  0  0  0  0  0  0  0  0
   14.3462   -5.4712   -1.6952 C   0  0  0  0  0  0  0  0  0  0  0  0
   13.4020   -5.0733   -2.0550 H   0  0  0  0  0  0  0  0  0  0  0  0
   14.6639   -6.8108   -1.9391 C   0  0  0  0  0  0  0  0  0  0  0  0
   13.9708   -7.4336   -2.4983 H   0  0  0  0  0  0  0  0  0  0  0  0
  1  2  1  0
  2  3  2  0
  3  4  1  0
  3  5  1  0
  5  6  1  0
  5  7  2  0
  7  8  1  0
  8  9  1  0
  9 10  2  0
 10 11  1  0
 10 12  1  0
 12 13  1  0
 12 14  2  0
 14 15  1  0
 14 16  1  0
 16 17  1  0
 17 18  1  0
 17 19  1  0
 17 20  1  0
 20 21  2  0
 21 22  1  0
 21 23  1  0
 23 24  1  0
 23 25  2  0
 25 26  1  0
 25 27  1  0
 27 28  1  0
 27 29  2  0
 29 30  1  0
 16 31  2  0
 31 32  1  0
  8 33  1  0
 33 34  2  0
 33 35  1  0
 35 36  1  0
 36 37  1  0
 36 38  1  0
 36 39  1  0
 35 40  1  0
 40 41  1  0
 41 42  1  0
 41 43  1  0
 40 44  2  0
 44 45  1  0
  7 46  1  0
 46 47  1  0
 46 48  2  0
 48 49  1  0
 48  2  1  0
 44  8  1  0
 31  9  1  0
 29 20  1  0
M  CHG  1  44   1
M  END
>  <score>  (60) 
6.09116

$$$$

     RDKit          3D

 49 53  0  0  0  0  0  0  0  0999 V2000
   16.1768   -8.4662   -1.7320 H   0  0  0  0  0  0  0  0  0  0  0  0
   15.9036   -7.4375   -1.5154 C   0  0  0  0  0  0  0  0  0  0  0  0
   16.7750   -6.6188   -0.7865 C   0  0  0  0  0  0  0  0  0  0  0  0
   17.7392   -6.9879   -0.4514 H   0  0  0  0  0  0  0  0  0  0  0  0
   16.4135   -5.3023   -0.4884 C   0  0  0  0  0  0  0  0  0  0  0  0
   17.1000   -4.6589    0.0562 H   0  0  0  0  0  0  0  0  0  0  0  0
   15.1774   -4.7926   -0.9093 C   0  0  0  0  0  0  0  0  0  0  0  0
   14.8109   -3.3517   -0.6455 C   0  0  0  0  0  0  0  0  0  0  0  0
   15.4090   -2.4534   -1.7027 C   0  0  0  0  0  0  0  0  0  0  0  0
   15.9201   -2.9037   -2.9331 C   0  0  0  0  0  0  0  0  0  0  0  0
   15.9445   -3.9671   -3.1536 H   0  0  0  0  0  0  0  0  0  0  0  0
   16.3863   -1.9818   -3.8783 C   0  0  0  0  0  0  0  0  0  0  0  0
   16.7681   -2.3258   -4.8293 H   0  0  0  0  0  0  0  0  0  0  0  0
   16.3455   -0.6125   -3.6107 C   0  0  0  0  0  0  0  0  0  0  0  0
   16.7136    0.0890   -4.3550 H   0  0  0  0  0  0  0  0  0  0  0  0
   15.8343   -0.1660   -2.3844 C   0  0  0  0  0  0  0  0  0  0  0  0
   15.7447    1.2357   -2.0205 C   0  0  0  0  0  0  0  0  0  0  0  0
   15.9565    2.2806   -2.7869 N   0  0  0  0  0  0  0  0  0  0  0  0
   15.7253    3.3651   -1.9536 C   0  0  0  0  0  0  0  0  0  0  0  0
   15.7741    4.7124   -2.2607 C   0  0  0  0  0  0  0  0  0  0  0  0
   16.0071    4.9826   -3.2813 H   0  0  0  0  0  0  0  0  0  0  0  0
   15.4996    5.6472   -1.2528 C   0  0  0  0  0  0  0  0  0  0  0  0
   15.5156    6.6934   -1.4899 H   0  0  0  0  0  0  0  0  0  0  0  0
   15.1975    5.2323    0.0516 C   0  0  0  0  0  0  0  0  0  0  0  0
   15.0175    5.9540    0.8380 H   0  0  0  0  0  0  0  0  0  0  0  0
   15.1309    3.8702    0.3443 C   0  0  0  0  0  0  0  0  0  0  0  0
   14.8698    3.5194    1.3347 H   0  0  0  0  0  0  0  0  0  0  0  0
   15.3922    2.9649   -0.6745 C   0  0  0  0  0  0  0  0  0  0  0  0
   15.3893    1.6102   -0.7373 N   0  0  0  0  0  0  0  0  0  0  0  0
   15.1584    0.9798    0.0243 H   0  0  0  0  0  0  0  0  0  0  0  0
   15.3798   -1.0925   -1.4506 C   0  0  0  0  0  0  0  0  0  0  0  0
   14.9811   -0.7514   -0.4977 H   0  0  0  0  0  0  0  0  0  0  0  0
   13.2946   -3.0882   -0.5325 C   0  0  0  0  0  0  0  0  0  0  0  0
   12.4339   -3.3339   -1.3743 O   0  0  0  0  0  0  0  0  0  0  0  0
   13.0032   -2.5406    0.7023 N   0  0  0  0  0  0  0  0  0  0  0  0
   11.6432   -2.2655    1.1894 C   0  0  0  0  0  0  0  0  0  0  0  0
   11.3808   -2.9304    2.0174 H   0  0  0  0  0  0  0  0  0  0  0  0
   10.9051   -2.4268    0.3973 H   0  0  0  0  0  0  0  0  0  0  0  0
   11.5243   -1.2288    1.5174 H   0  0  0  0  0  0  0  0  0  0  0  0
   14.1948   -2.4876    1.4018 C   0  0  0  0  0  0  0  0  0  0  0  0
   14.3797   -2.0468    2.6786 N   0  0  0  0  0  0  0  0  0  0  0  0
   15.3035   -2.2125    3.0858 H   0  0  0  0  0  0  0  0  0  0  0  0
   13.5610   -2.0337    3.2870 H   0  0  0  0  0  0  0  0  0  0  0  0
   15.1993   -2.9300    0.7170 N   0  0  0  0  0  4  0  0  0  0  0  0
   16.1510   -3.0091    1.0800 H   0  0  0  0  0  0  0  0  0  0  0  0
   14.3197   -5.6093   -1.6579 C   0  0  0  0  0  0  0  0  0  0  0  0
   13.3796   -5.2080   -2.0251 H   0  0  0  0  0  0  0  0  0  0  0  0
   14.6769   -6.9270   -1.9564 C   0  0  0  0  0  0  0  0  0  0  0  0
   14.0005   -7.5433   -2.5390 H   0  0  0  0  0  0  0  0  0  0  0  0
  1  2  1  0
  2  3  2  0
  3  4  1  0
  3  5  1  0
  5  6  1  0
  5  7  2  0
  7  8  1  0
  8  9  1  0
  9 10  2  0
 10 11  1  0
 10 12  1  0
 12 13  1  0
 12 14  2  0
 14 15  1  0
 14 16  1  0
 16 17  1  0
 17 18  2  0
 18 19  1  0
 19 20  2  0
 20 21  1  0
 20 22  1  0
 22 23  1  0
 22 24  2  0
 24 25  1  0
 24 26  1  0
 26 27  1  0
 26 28  2  0
 28 29  1  0
 29 30  1  0
 16 31  2  0
 31 32  1  0
  8 33  1  0
 33 34  2  0
 33 35  1  0
 35 36  1  0
 36 37  1  0
 36 38  1  0
 36 39  1  0
 35 40  1  0
 40 41  1  0
 41 42  1  0
 41 43  1  0
 40 44  2  0
 44 45  1  0
  7 46  1  0
 46 47  1  0
 46 48  2  0
 48 49  1  0
 48  2  1  0
 44  8  1  0
 31  9  1  0
 29 17  1  0
 28 19  1  0
M  CHG  1  44   1
M  END
>  <score>  (61) 
6.07997

$$$$

     RDKit          3D

 46 49  0  0  0  0  0  0  0  0999 V2000
   16.1239   -8.4885   -1.6111 H   0  0  0  0  0  0  0  0  0  0  0  0
   15.8529   -7.4437   -1.4714 C   0  0  0  0  0  0  0  0  0  0  0  0
   16.7273   -6.5856   -0.8010 C   0  0  0  0  0  0  0  0  0  0  0  0
   17.6736   -6.9553   -0.4179 H   0  0  0  0  0  0  0  0  0  0  0  0
   16.3902   -5.2403   -0.6116 C   0  0  0  0  0  0  0  0  0  0  0  0
   17.0670   -4.5899   -0.0653 H   0  0  0  0  0  0  0  0  0  0  0  0
   15.1718   -4.7181   -1.0737 C   0  0  0  0  0  0  0  0  0  0  0  0
   14.8127   -3.2524   -0.7845 C   0  0  0  0  0  0  0  0  0  0  0  0
   15.3829   -2.2445   -1.7827 C   0  0  0  0  0  0  0  0  0  0  0  0
   15.9390   -2.6390   -3.0096 C   0  0  0  0  0  0  0  0  0  0  0  0
   16.0028   -3.6913   -3.2624 H   0  0  0  0  0  0  0  0  0  0  0  0
   16.4229   -1.6893   -3.9181 C   0  0  0  0  0  0  0  0  0  0  0  0
   16.8558   -2.0047   -4.8617 H   0  0  0  0  0  0  0  0  0  0  0  0
   16.3533   -0.3260   -3.6187 C   0  0  0  0  0  0  0  0  0  0  0  0
   16.7106    0.4067   -4.3377 H   0  0  0  0  0  0  0  0  0  0  0  0
   15.7872    0.1044   -2.4113 C   0  0  0  0  0  0  0  0  0  0  0  0
   15.7267    1.5458   -2.0904 C   0  0  0  0  0  0  0  0  0  0  0  0
   16.8994    2.3168   -2.1372 C   0  0  0  0  0  0  0  0  0  0  0  0
   17.8392    1.8488   -2.4080 H   0  0  0  0  0  0  0  0  0  0  0  0
   16.8883    3.6793   -1.8162 C   0  0  0  0  0  0  0  0  0  0  0  0
   17.8110    4.2531   -1.8439 H   0  0  0  0  0  0  0  0  0  0  0  0
   15.6911    4.2973   -1.4512 C   0  0  0  0  0  0  0  0  0  0  0  0
   15.6712    5.3549   -1.1986 H   0  0  0  0  0  0  0  0  0  0  0  0
   14.5082    3.5534   -1.4129 C   0  0  0  0  0  0  0  0  0  0  0  0
   13.0206    4.3596   -0.9717 Cl  0  0  0  0  0  0  0  0  0  0  0  0
   14.5219    2.1823   -1.7320 C   0  0  0  0  0  0  0  0  0  0  0  0
   13.0203    1.2882   -1.7240 Cl  0  0  0  0  0  0  0  0  0  0  0  0
   15.3084   -0.8627   -1.5092 C   0  0  0  0  0  0  0  0  0  0  0  0
   14.9007   -0.5252   -0.5623 H   0  0  0  0  0  0  0  0  0  0  0  0
   13.2993   -3.0274   -0.6050 C   0  0  0  0  0  0  0  0  0  0  0  0
   12.4296   -3.0842   -1.4711 O   0  0  0  0  0  0  0  0  0  0  0  0
   13.0231   -2.6739    0.7019 N   0  0  0  0  0  0  0  0  0  0  0  0
   11.7215   -2.3134    1.2609 C   0  0  0  0  0  0  0  0  0  0  0  0
   11.6912   -1.2621    1.5550 H   0  0  0  0  0  0  0  0  0  0  0  0
   10.9131   -2.4776    0.5437 H   0  0  0  0  0  0  0  0  0  0  0  0
   11.5040   -2.9123    2.1468 H   0  0  0  0  0  0  0  0  0  0  0  0
   14.2237   -2.6295    1.3656 C   0  0  0  0  0  0  0  0  0  0  0  0
   14.3945   -2.3347    2.6861 N   0  0  0  0  0  0  0  0  0  0  0  0
   13.5812   -2.1263    3.2621 H   0  0  0  0  0  0  0  0  0  0  0  0
   15.3289   -2.3551    3.0937 H   0  0  0  0  0  0  0  0  0  0  0  0
   15.2179   -2.9032    0.5901 N   0  0  0  0  0  4  0  0  0  0  0  0
   16.1866   -2.9080    0.9010 H   0  0  0  0  0  0  0  0  0  0  0  0
   14.3022   -5.5908   -1.7668 C   0  0  0  0  0  0  0  0  0  0  0  0
   13.3531   -5.2388   -2.1618 H   0  0  0  0  0  0  0  0  0  0  0  0
   14.6427   -6.9423   -1.9613 C   0  0  0  0  0  0  0  0  0  0  0  0
   13.9733   -7.6167   -2.4882 H   0  0  0  0  0  0  0  0  0  0  0  0
  1  2  1  0
  2  3  2  0
  3  4  1  0
  3  5  1  0
  5  6  1  0
  5  7  2  0
  7  8  1  0
  8  9  1  0
  9 10  2  0
 10 11  1  0
 10 12  1  0
 12 13  1  0
 12 14  2  0
 14 15  1  0
 14 16  1  0
 16 17  1  0
 17 18  2  0
 18 19  1  0
 18 20  1  0
 20 21  1  0
 20 22  2  0
 22 23  1  0
 22 24  1  0
 24 25  1  0
 24 26  2  0
 26 27  1  0
 16 28  2  0
 28 29  1  0
  8 30  1  0
 30 31  2  0
 30 32  1  0
 32 33  1  0
 33 34  1  0
 33 35  1  0
 33 36  1  0
 32 37  1  0
 37 38  1  0
 38 39  1  0
 38 40  1  0
 37 41  2  0
 41 42  1  0
  7 43  1  0
 43 44  1  0
 43 45  2  0
 45 46  1  0
 45  2  1  0
 41  8  1  0
 28  9  1  0
 26 17  1  0
M  CHG  1  41   1
M  END
>  <score>  (62) 
6.07892

$$$$

     RDKit          3D

 51 54  0  0  0  0  0  0  0  0999 V2000
   16.1692   -8.8589   -1.8230 H   0  0  0  0  0  0  0  0  0  0  0  0
   15.9277   -7.8287   -1.5861 C   0  0  0  0  0  0  0  0  0  0  0  0
   16.8293   -7.0436   -0.8633 C   0  0  0  0  0  0  0  0  0  0  0  0
   17.7839   -7.4565   -0.5566 H   0  0  0  0  0  0  0  0  0  0  0  0
   16.5007   -5.7267   -0.5347 C   0  0  0  0  0  0  0  0  0  0  0  0
   17.2128   -5.1199    0.0203 H   0  0  0  0  0  0  0  0  0  0  0  0
   15.2599   -5.1875   -0.9103 C   0  0  0  0  0  0  0  0  0  0  0  0
   14.9084   -3.7585   -0.5402 C   0  0  0  0  0  0  0  0  0  0  0  0
   15.5133   -2.7630   -1.5092 C   0  0  0  0  0  0  0  0  0  0  0  0
   15.9554   -3.1089   -2.7995 C   0  0  0  0  0  0  0  0  0  0  0  0
   15.8994   -4.1383   -3.1383 H   0  0  0  0  0  0  0  0  0  0  0  0
   16.4669   -2.1300   -3.6604 C   0  0  0  0  0  0  0  0  0  0  0  0
   16.7984   -2.3837   -4.6612 H   0  0  0  0  0  0  0  0  0  0  0  0
   16.5100   -0.7977   -3.2495 C   0  0  0  0  0  0  0  0  0  0  0  0
   16.8547   -0.0236   -3.9281 H   0  0  0  0  0  0  0  0  0  0  0  0
   16.0188   -0.4347   -1.9917 C   0  0  0  0  0  0  0  0  0  0  0  0
   15.8278    0.9684   -1.6651 C   0  0  0  0  0  0  0  0  0  0  0  0
   16.7331    1.9338   -2.1086 C   0  0  0  0  0  0  0  0  0  0  0  0
   17.6601    1.6220   -2.5800 H   0  0  0  0  0  0  0  0  0  0  0  0
   16.4174    3.2831   -2.0126 C   0  0  0  0  0  0  0  0  0  0  0  0
   17.1223    3.9966   -2.4340 H   0  0  0  0  0  0  0  0  0  0  0  0
   15.1756    3.6712   -1.4792 C   0  0  0  0  0  0  0  0  0  0  0  0
   14.6012    5.3697   -1.6652 S   0  0  0  0  0  0  0  0  0  0  0  0
   13.1509    5.5299   -1.7861 O   0  0  0  0  0  0  0  0  0  0  0  0
   15.2536    6.3312   -0.7803 O   0  0  0  0  0  0  0  0  0  0  0  0
   15.2362    5.7668   -3.1379 N   0  0  0  0  0  0  0  0  0  0  0  0
   14.8197    6.6663   -3.3378 H   0  0  0  0  0  0  0  0  0  0  0  0
   16.2253    5.8570   -2.9687 H   0  0  0  0  0  0  0  0  0  0  0  0
   14.3106    2.7103   -0.9380 C   0  0  0  0  0  0  0  0  0  0  0  0
   13.3467    2.9684   -0.5015 H   0  0  0  0  0  0  0  0  0  0  0  0
   14.6413    1.3663   -1.0358 C   0  0  0  0  0  0  0  0  0  0  0  0
   13.9331    0.6212   -0.6823 H   0  0  0  0  0  0  0  0  0  0  0  0
   15.5551   -1.4201   -1.1250 C   0  0  0  0  0  0  0  0  0  0  0  0
   15.1904   -1.1302   -0.1433 H   0  0  0  0  0  0  0  0  0  0  0  0
   13.4012   -3.4623   -0.3609 C   0  0  0  0  0  0  0  0  0  0  0  0
   12.5091   -3.6324   -1.1905 O   0  0  0  0  0  0  0  0  0  0  0  0
   13.1807   -2.9372    0.8995 N   0  0  0  0  0  0  0  0  0  0  0  0
   11.9563   -2.3408    1.4419 C   0  0  0  0  0  0  0  0  0  0  0  0
   11.0679   -2.7648    0.9600 H   0  0  0  0  0  0  0  0  0  0  0  0
   11.8919   -2.5457    2.5194 H   0  0  0  0  0  0  0  0  0  0  0  0
   11.9541   -1.2511    1.2950 H   0  0  0  0  0  0  0  0  0  0  0  0
   14.3921   -2.9289    1.5368 C   0  0  0  0  0  0  0  0  0  0  0  0
   14.5941   -2.4365    2.7903 N   0  0  0  0  0  0  0  0  0  0  0  0
   13.8512   -1.8813    3.2090 H   0  0  0  0  0  0  0  0  0  0  0  0
   15.5540   -2.2174    3.0377 H   0  0  0  0  0  0  0  0  0  0  0  0
   15.3449   -3.4468    0.8339 N   0  0  0  0  0  4  0  0  0  0  0  0
   16.3202   -3.4504    1.1285 H   0  0  0  0  0  0  0  0  0  0  0  0
   14.3753   -5.9709   -1.6656 C   0  0  0  0  0  0  0  0  0  0  0  0
   13.4297   -5.5479   -1.9920 H   0  0  0  0  0  0  0  0  0  0  0  0
   14.7080   -7.2866   -1.9998 C   0  0  0  0  0  0  0  0  0  0  0  0
   14.0103   -7.8819   -2.5778 H   0  0  0  0  0  0  0  0  0  0  0  0
  1  2  1  0
  2  3  2  0
  3  4  1  0
  3  5  1  0
  5  6  1  0
  5  7  2  0
  7  8  1  0
  8  9  1  0
  9 10  2  0
 10 11  1  0
 10 12  1  0
 12 13  1  0
 12 14  2  0
 14 15  1  0
 14 16  1  0
 16 17  1  0
 17 18  2  0
 18 19  1  0
 18 20  1  0
 20 21  1  0
 20 22  2  0
 22 23  1  0
 23 24  2  0
 23 25  2  0
 23 26  1  0
 26 27  1  0
 26 28  1  0
 22 29  1  0
 29 30  1  0
 29 31  2  0
 31 32  1  0
 16 33  2  0
 33 34  1  0
  8 35  1  0
 35 36  2  0
 35 37  1  0
 37 38  1  0
 38 39  1  0
 38 40  1  0
 38 41  1  0
 37 42  1  0
 42 43  1  0
 43 44  1  0
 43 45  1  0
 42 46  2  0
 46 47  1  0
  7 48  1  0
 48 49  1  0
 48 50  2  0
 50 51  1  0
 50  2  1  0
 46  8  1  0
 33  9  1  0
 31 17  1  0
M  CHG  1  46   1
M  END
>  <score>  (63) 
6.07465

$$$$

     RDKit          3D

 50 54  0  0  0  0  0  0  0  0999 V2000
   16.3000   -8.6616   -1.8462 H   0  0  0  0  0  0  0  0  0  0  0  0
   16.0031   -7.6570   -1.5620 C   0  0  0  0  0  0  0  0  0  0  0  0
   16.8648   -6.8758   -0.7793 C   0  0  0  0  0  0  0  0  0  0  0  0
   17.8363   -7.2560   -0.4707 H   0  0  0  0  0  0  0  0  0  0  0  0
   16.4867   -5.5791   -0.4097 C   0  0  0  0  0  0  0  0  0  0  0  0
   17.1614   -4.9557    0.1691 H   0  0  0  0  0  0  0  0  0  0  0  0
   15.2478   -5.0545   -0.8034 C   0  0  0  0  0  0  0  0  0  0  0  0
   14.8679   -3.6244   -0.4765 C   0  0  0  0  0  0  0  0  0  0  0  0
   15.3903   -2.6757   -1.5496 C   0  0  0  0  0  0  0  0  0  0  0  0
   15.7657   -3.1069   -2.8360 C   0  0  0  0  0  0  0  0  0  0  0  0
   15.7449   -4.1684   -3.0707 H   0  0  0  0  0  0  0  0  0  0  0  0
   16.1471   -2.1809   -3.8200 C   0  0  0  0  0  0  0  0  0  0  0  0
   16.4306   -2.5260   -4.8089 H   0  0  0  0  0  0  0  0  0  0  0  0
   16.1707   -0.8103   -3.5258 C   0  0  0  0  0  0  0  0  0  0  0  0
   16.4690   -0.0788   -4.2705 H   0  0  0  0  0  0  0  0  0  0  0  0
   15.8413   -0.3766   -2.2458 C   0  0  0  0  0  0  0  0  0  0  0  0
   15.9460    0.9626   -1.8743 N   0  0  0  0  0  0  0  0  0  0  0  0
   16.0648    1.3671   -0.5710 C   0  0  0  0  0  0  0  0  0  0  0  0
   16.3097    0.6246    0.3662 O   0  0  0  0  0  0  0  0  0  0  0  0
   15.9091    2.8017   -0.4808 C   0  0  0  0  0  0  0  0  0  0  0  0
   15.8951    3.6604    0.6232 C   0  0  0  0  0  0  0  0  0  0  0  0
   16.0119    3.2851    1.6356 H   0  0  0  0  0  0  0  0  0  0  0  0
   15.7322    5.0300    0.4135 C   0  0  0  0  0  0  0  0  0  0  0  0
   15.7495    5.7158    1.2570 H   0  0  0  0  0  0  0  0  0  0  0  0
   15.5592    5.5222   -0.8863 C   0  0  0  0  0  0  0  0  0  0  0  0
   15.4190    6.5855   -1.0376 H   0  0  0  0  0  0  0  0  0  0  0  0
   15.5844    4.6568   -1.9905 C   0  0  0  0  0  0  0  0  0  0  0  0
   15.4490    5.0616   -2.9897 H   0  0  0  0  0  0  0  0  0  0  0  0
   15.7704    3.2790   -1.7792 C   0  0  0  0  0  0  0  0  0  0  0  0
   15.8402    2.0959   -2.6487 C   0  0  0  0  0  0  0  0  0  0  0  0
   15.7184    2.0982   -3.8638 O   0  0  0  0  0  0  0  0  0  0  0  0
   15.4273   -1.3048   -1.2851 C   0  0  0  0  0  0  0  0  0  0  0  0
   15.1181   -0.9525   -0.3075 H   0  0  0  0  0  0  0  0  0  0  0  0
   13.3493   -3.4314   -0.2981 C   0  0  0  0  0  0  0  0  0  0  0  0
   12.4911   -3.5940   -1.1621 O   0  0  0  0  0  0  0  0  0  0  0  0
   13.0704   -2.9696    0.9755 N   0  0  0  0  0  0  0  0  0  0  0  0
   11.8133   -2.3692    1.4417 C   0  0  0  0  0  0  0  0  0  0  0  0
   11.4563   -2.8509    2.3610 H   0  0  0  0  0  0  0  0  0  0  0  0
   11.0302   -2.4624    0.6830 H   0  0  0  0  0  0  0  0  0  0  0  0
   11.9595   -1.3029    1.6498 H   0  0  0  0  0  0  0  0  0  0  0  0
   14.2831   -2.8642    1.6190 C   0  0  0  0  0  0  0  0  0  0  0  0
   14.4072   -2.3655    2.8846 N   0  0  0  0  0  0  0  0  0  0  0  0
   15.3297   -2.1157    3.2325 H   0  0  0  0  0  0  0  0  0  0  0  0
   13.5894   -1.9400    3.3104 H   0  0  0  0  0  0  0  0  0  0  0  0
   15.2842   -3.2472    0.8919 N   0  0  0  0  0  4  0  0  0  0  0  0
   16.2602   -3.1678    1.1869 H   0  0  0  0  0  0  0  0  0  0  0  0
   14.3892   -5.8508   -1.5799 C   0  0  0  0  0  0  0  0  0  0  0  0
   13.4354   -5.4589   -1.9197 H   0  0  0  0  0  0  0  0  0  0  0  0
   14.7616   -7.1457   -1.9608 C   0  0  0  0  0  0  0  0  0  0  0  0
   14.1001   -7.7500   -2.5791 H   0  0  0  0  0  0  0  0  0  0  0  0
  1  2  1  0
  2  3  2  0
  3  4  1  0
  3  5  1  0
  5  6  1  0
  5  7  2  0
  7  8  1  0
  8  9  1  0
  9 10  2  0
 10 11  1  0
 10 12  1  0
 12 13  1  0
 12 14  2  0
 14 15  1  0
 14 16  1  0
 16 17  1  0
 17 18  1  0
 18 19  2  0
 18 20  1  0
 20 21  2  0
 21 22  1  0
 21 23  1  0
 23 24  1  0
 23 25  2  0
 25 26  1  0
 25 27  1  0
 27 28  1  0
 27 29  2  0
 29 30  1  0
 30 31  2  0
 16 32  2  0
 32 33  1  0
  8 34  1  0
 34 35  2  0
 34 36  1  0
 36 37  1  0
 37 38  1  0
 37 39  1  0
 37 40  1  0
 36 41  1  0
 41 42  1  0
 42 43  1  0
 42 44  1  0
 41 45  2  0
 45 46  1  0
  7 47  1  0
 47 48  1  0
 47 49  2  0
 49 50  1  0
 49  2  1  0
 45  8  1  0
 32  9  1  0
 30 17  1  0
 29 20  1  0
M  CHG  1  45   1
M  END
>  <score>  (64) 
6.0734

$$$$

     RDKit          3D

 55 58  0  0  0  0  0  0  0  0999 V2000
   16.0855   -8.4219   -1.6348 H   0  0  0  0  0  0  0  0  0  0  0  0
   15.8544   -7.3705   -1.4934 C   0  0  0  0  0  0  0  0  0  0  0  0
   16.7513   -6.5467   -0.8055 C   0  0  0  0  0  0  0  0  0  0  0  0
   17.6805   -6.9489   -0.4104 H   0  0  0  0  0  0  0  0  0  0  0  0
   16.4379   -5.1999   -0.5972 C   0  0  0  0  0  0  0  0  0  0  0  0
   17.1235   -4.5596   -0.0505 H   0  0  0  0  0  0  0  0  0  0  0  0
   15.2215   -4.6657   -1.0472 C   0  0  0  0  0  0  0  0  0  0  0  0
   14.8548   -3.2236   -0.7369 C   0  0  0  0  0  0  0  0  0  0  0  0
   15.4003   -2.2093   -1.7334 C   0  0  0  0  0  0  0  0  0  0  0  0
   15.9233   -2.6036   -2.9764 C   0  0  0  0  0  0  0  0  0  0  0  0
   15.9753   -3.6612   -3.2133 H   0  0  0  0  0  0  0  0  0  0  0  0
   16.3829   -1.6621   -3.9085 C   0  0  0  0  0  0  0  0  0  0  0  0
   16.7993   -1.9782   -4.8608 H   0  0  0  0  0  0  0  0  0  0  0  0
   16.3124   -0.3002   -3.5990 C   0  0  0  0  0  0  0  0  0  0  0  0
   16.6622    0.4651   -4.2841 H   0  0  0  0  0  0  0  0  0  0  0  0
   15.8012    0.1109   -2.3725 C   0  0  0  0  0  0  0  0  0  0  0  0
   15.7674    1.4677   -2.0791 N   0  0  0  0  0  0  0  0  0  0  0  0
   15.9731    1.9311   -0.7017 C   0  0  0  0  0  0  0  0  0  0  0  0
   16.5271    1.1881   -0.1230 H   0  0  0  0  0  0  0  0  0  0  0  0
   15.0040    2.0801   -0.2206 H   0  0  0  0  0  0  0  0  0  0  0  0
   16.7556    3.2413   -0.7488 C   0  0  0  0  0  0  0  0  0  0  0  0
   16.8811    3.6472    0.2589 H   0  0  0  0  0  0  0  0  0  0  0  0
   17.7473    3.0654   -1.1662 H   0  0  0  0  0  0  0  0  0  0  0  0
   16.0314    4.2455   -1.6370 C   0  0  0  0  0  0  0  0  0  0  0  0
   16.6522    5.1372   -1.7570 H   0  0  0  0  0  0  0  0  0  0  0  0
   14.7850    4.5695   -1.0326 O   0  0  0  0  0  0  0  0  0  0  0  0
   14.9098    5.7238   -0.1998 C   0  0  0  0  0  0  0  0  0  0  0  0
   15.0268    6.6142   -0.8232 H   0  0  0  0  0  0  0  0  0  0  0  0
   15.7807    5.6343    0.4578 H   0  0  0  0  0  0  0  0  0  0  0  0
   14.0232    5.8536    0.4198 H   0  0  0  0  0  0  0  0  0  0  0  0
   15.7546    3.6854   -3.0167 C   0  0  0  0  0  0  0  0  0  0  0  0
   16.7152    3.5345   -3.5077 H   0  0  0  0  0  0  0  0  0  0  0  0
   15.1727    4.4092   -3.5919 H   0  0  0  0  0  0  0  0  0  0  0  0
   15.0245    2.3547   -2.9768 C   0  0  0  0  0  0  0  0  0  0  0  0
   13.9941    2.4651   -2.6229 H   0  0  0  0  0  0  0  0  0  0  0  0
   14.9830    1.9444   -3.9894 H   0  0  0  0  0  0  0  0  0  0  0  0
   15.3366   -0.8303   -1.4529 C   0  0  0  0  0  0  0  0  0  0  0  0
   14.9254   -0.4542   -0.5217 H   0  0  0  0  0  0  0  0  0  0  0  0
   13.3353   -3.0301   -0.5837 C   0  0  0  0  0  0  0  0  0  0  0  0
   12.4759   -3.1805   -1.4546 O   0  0  0  0  0  0  0  0  0  0  0  0
   13.0572   -2.6750    0.7210 N   0  0  0  0  0  0  0  0  0  0  0  0
   11.7517   -2.3141    1.2790 C   0  0  0  0  0  0  0  0  0  0  0  0
   11.5172   -2.9091    2.1684 H   0  0  0  0  0  0  0  0  0  0  0  0
   11.7374   -1.2569    1.5602 H   0  0  0  0  0  0  0  0  0  0  0  0
   10.9510   -2.4806    0.5523 H   0  0  0  0  0  0  0  0  0  0  0  0
   14.2609   -2.6042    1.3906 C   0  0  0  0  0  0  0  0  0  0  0  0
   14.4341   -2.2535    2.6927 N   0  0  0  0  0  0  0  0  0  0  0  0
   15.3719   -2.3002    3.0929 H   0  0  0  0  0  0  0  0  0  0  0  0
   13.6206   -2.1128    3.2881 H   0  0  0  0  0  0  0  0  0  0  0  0
   15.2676   -2.9114    0.6454 N   0  0  0  0  0  4  0  0  0  0  0  0
   16.2240   -3.0155    0.9913 H   0  0  0  0  0  0  0  0  0  0  0  0
   14.3342   -5.4992   -1.7482 C   0  0  0  0  0  0  0  0  0  0  0  0
   13.3806   -5.1093   -2.0917 H   0  0  0  0  0  0  0  0  0  0  0  0
   14.6502   -6.8446   -1.9740 C   0  0  0  0  0  0  0  0  0  0  0  0
   13.9462   -7.4929   -2.4874 H   0  0  0  0  0  0  0  0  0  0  0  0
  1  2  1  0
  2  3  2  0
  3  4  1  0
  3  5  1  0
  5  6  1  0
  5  7  2  0
  7  8  1  0
  8  9  1  0
  9 10  2  0
 10 11  1  0
 10 12  1  0
 12 13  1  0
 12 14  2  0
 14 15  1  0
 14 16  1  0
 16 17  1  0
 17 18  1  0
 18 19  1  0
 18 20  1  0
 18 21  1  0
 21 22  1  0
 21 23  1  0
 21 24  1  0
 24 25  1  0
 24 26  1  0
 26 27  1  0
 27 28  1  0
 27 29  1  0
 27 30  1  0
 24 31  1  0
 31 32  1  0
 31 33  1  0
 31 34  1  0
 34 35  1  0
 34 36  1  0
 16 37  2  0
 37 38  1  0
  8 39  1  0
 39 40  2  0
 39 41  1  0
 41 42  1  0
 42 43  1  0
 42 44  1  0
 42 45  1  0
 41 46  1  0
 46 47  1  0
 47 48  1  0
 47 49  1  0
 46 50  2  0
 50 51  1  0
  7 52  1  0
 52 53  1  0
 52 54  2  0
 54 55  1  0
 54  2  1  0
 50  8  1  0
 37  9  1  0
 34 17  1  0
M  CHG  1  50   1
M  END
>  <score>  (65) 
6.07236

$$$$

     RDKit          3D

 41 44  0  0  0  0  0  0  0  0999 V2000
   16.1279   -8.4912   -1.6106 H   0  0  0  0  0  0  0  0  0  0  0  0
   15.8546   -7.4481   -1.4684 C   0  0  0  0  0  0  0  0  0  0  0  0
   16.7258   -6.5888   -0.7968 C   0  0  0  0  0  0  0  0  0  0  0  0
   17.6770   -6.9549   -0.4207 H   0  0  0  0  0  0  0  0  0  0  0  0
   16.3817   -5.2462   -0.6068 C   0  0  0  0  0  0  0  0  0  0  0  0
   17.0709   -4.5995   -0.0725 H   0  0  0  0  0  0  0  0  0  0  0  0
   15.1614   -4.7233   -1.0713 C   0  0  0  0  0  0  0  0  0  0  0  0
   14.8052   -3.2531   -0.7871 C   0  0  0  0  0  0  0  0  0  0  0  0
   15.3887   -2.2491   -1.7857 C   0  0  0  0  0  0  0  0  0  0  0  0
   15.9459   -2.6431   -3.0138 C   0  0  0  0  0  0  0  0  0  0  0  0
   16.0087   -3.6961   -3.2732 H   0  0  0  0  0  0  0  0  0  0  0  0
   16.4234   -1.6868   -3.9199 C   0  0  0  0  0  0  0  0  0  0  0  0
   16.8590   -2.0049   -4.8623 H   0  0  0  0  0  0  0  0  0  0  0  0
   16.3428   -0.3210   -3.6223 C   0  0  0  0  0  0  0  0  0  0  0  0
   16.7081    0.3966   -4.3549 H   0  0  0  0  0  0  0  0  0  0  0  0
   15.7911    0.1103   -2.4002 C   0  0  0  0  0  0  0  0  0  0  0  0
   15.6958    1.5520   -2.0544 C   0  0  0  0  0  0  0  0  0  0  0  0
   16.1156    2.5955   -2.8758 N   0  0  0  0  0  0  0  0  0  0  0  0
   15.8903    3.7050   -2.2834 N   0  0  0  0  0  0  0  0  0  0  0  0
   15.3348    3.3447   -1.1075 N   0  0  0  0  0  0  0  0  0  0  0  0
   15.0445    4.0309   -0.4118 H   0  0  0  0  0  0  0  0  0  0  0  0
   15.1964    2.0104   -0.9351 N   0  0  0  0  0  0  0  0  0  0  0  0
   15.3218   -0.8697   -1.5033 C   0  0  0  0  0  0  0  0  0  0  0  0
   14.8953   -0.5446   -0.5577 H   0  0  0  0  0  0  0  0  0  0  0  0
   13.2895   -3.0196   -0.6106 C   0  0  0  0  0  0  0  0  0  0  0  0
   12.4207   -3.0783   -1.4802 O   0  0  0  0  0  0  0  0  0  0  0  0
   13.0192   -2.6684    0.6983 N   0  0  0  0  0  0  0  0  0  0  0  0
   11.7180   -2.3124    1.2628 C   0  0  0  0  0  0  0  0  0  0  0  0
   11.5006   -2.9207    2.1455 H   0  0  0  0  0  0  0  0  0  0  0  0
   10.9157   -2.4764    0.5372 H   0  0  0  0  0  0  0  0  0  0  0  0
   11.6928   -1.2592    1.5590 H   0  0  0  0  0  0  0  0  0  0  0  0
   14.2232   -2.6308    1.3657 C   0  0  0  0  0  0  0  0  0  0  0  0
   14.3899   -2.3408    2.6912 N   0  0  0  0  0  0  0  0  0  0  0  0
   13.5793   -2.1266    3.2684 H   0  0  0  0  0  0  0  0  0  0  0  0
   15.3246   -2.3589    3.0972 H   0  0  0  0  0  0  0  0  0  0  0  0
   15.2181   -2.9064    0.5908 N   0  0  0  0  0  4  0  0  0  0  0  0
   16.1919   -2.8918    0.8945 H   0  0  0  0  0  0  0  0  0  0  0  0
   14.2983   -5.6005   -1.7692 C   0  0  0  0  0  0  0  0  0  0  0  0
   13.3519   -5.2518   -2.1734 H   0  0  0  0  0  0  0  0  0  0  0  0
   14.6428   -6.9517   -1.9597 C   0  0  0  0  0  0  0  0  0  0  0  0
   13.9732   -7.6247   -2.4892 H   0  0  0  0  0  0  0  0  0  0  0  0
  1  2  1  0
  2  3  2  0
  3  4  1  0
  3  5  1  0
  5  6  1  0
  5  7  2  0
  7  8  1  0
  8  9  1  0
  9 10  2  0
 10 11  1  0
 10 12  1  0
 12 13  1  0
 12 14  2  0
 14 15  1  0
 14 16  1  0
 16 17  1  0
 17 18  1  0
 18 19  2  0
 19 20  1  0
 20 21  1  0
 20 22  1  0
 16 23  2  0
 23 24  1  0
  8 25  1  0
 25 26  2  0
 25 27  1  0
 27 28  1  0
 28 29  1  0
 28 30  1  0
 28 31  1  0
 27 32  1  0
 32 33  1  0
 33 34  1  0
 33 35  1  0
 32 36  2  0
 36 37  1  0
  7 38  1  0
 38 39  1  0
 38 40  2  0
 40 41  1  0
 40  2  1  0
 36  8  1  0
 23  9  1  0
 22 17  2  0
M  CHG  1  36   1
M  END
>  <score>  (66) 
6.07001

$$$$

     RDKit          3D

 48 52  0  0  0  0  0  0  0  0999 V2000
   16.1103   -8.4365   -1.6805 H   0  0  0  0  0  0  0  0  0  0  0  0
   15.8618   -7.3986   -1.4909 C   0  0  0  0  0  0  0  0  0  0  0  0
   16.7624   -6.5798   -0.7970 C   0  0  0  0  0  0  0  0  0  0  0  0
   17.7165   -6.9647   -0.4493 H   0  0  0  0  0  0  0  0  0  0  0  0
   16.4450   -5.2434   -0.5615 C   0  0  0  0  0  0  0  0  0  0  0  0
   17.1506   -4.6025   -0.0375 H   0  0  0  0  0  0  0  0  0  0  0  0
   15.2135   -4.7294   -0.9867 C   0  0  0  0  0  0  0  0  0  0  0  0
   14.8476   -3.3005   -0.7104 C   0  0  0  0  0  0  0  0  0  0  0  0
   15.4156   -2.3955   -1.7790 C   0  0  0  0  0  0  0  0  0  0  0  0
   15.9417   -2.8313   -3.0113 C   0  0  0  0  0  0  0  0  0  0  0  0
   15.9843   -3.8873   -3.2535 H   0  0  0  0  0  0  0  0  0  0  0  0
   16.4238   -1.9073   -3.9464 C   0  0  0  0  0  0  0  0  0  0  0  0
   16.8218   -2.2407   -4.8951 H   0  0  0  0  0  0  0  0  0  0  0  0
   16.4009   -0.5424   -3.6677 C   0  0  0  0  0  0  0  0  0  0  0  0
   16.7769    0.1711   -4.3990 H   0  0  0  0  0  0  0  0  0  0  0  0
   15.8696   -0.1123   -2.4444 C   0  0  0  0  0  0  0  0  0  0  0  0
   15.7827    1.2783   -2.0708 C   0  0  0  0  0  0  0  0  0  0  0  0
   16.1134    2.2849   -2.8444 N   0  0  0  0  0  0  0  0  0  0  0  0
   15.7864    3.3525   -2.0491 C   0  0  0  0  0  0  0  0  0  0  0  0
   15.8904    4.6993   -2.3436 C   0  0  0  0  0  0  0  0  0  0  0  0
   16.3060    4.9862   -3.3026 H   0  0  0  0  0  0  0  0  0  0  0  0
   15.4300    5.6207   -1.3875 C   0  0  0  0  0  0  0  0  0  0  0  0
   15.4818    6.6771   -1.5670 H   0  0  0  0  0  0  0  0  0  0  0  0
   14.8951    5.1925   -0.1681 C   0  0  0  0  0  0  0  0  0  0  0  0
   14.5101    5.9094    0.5467 H   0  0  0  0  0  0  0  0  0  0  0  0
   14.8259    3.8321    0.1173 C   0  0  0  0  0  0  0  0  0  0  0  0
   14.4120    3.4694    1.0467 H   0  0  0  0  0  0  0  0  0  0  0  0
   15.2717    2.9335   -0.8407 C   0  0  0  0  0  0  0  0  0  0  0  0
   15.2832    1.5961   -0.8320 O   0  0  0  0  0  0  0  0  0  0  0  0
   15.3704   -1.0376   -1.5316 C   0  0  0  0  0  0  0  0  0  0  0  0
   14.9314   -0.7004   -0.5933 H   0  0  0  0  0  0  0  0  0  0  0  0
   13.3305   -3.0826   -0.5359 C   0  0  0  0  0  0  0  0  0  0  0  0
   12.4541   -3.2490   -1.3832 O   0  0  0  0  0  0  0  0  0  0  0  0
   13.0722   -2.6629    0.7535 N   0  0  0  0  0  0  0  0  0  0  0  0
   11.7692   -2.3022    1.3039 C   0  0  0  0  0  0  0  0  0  0  0  0
   10.9727   -2.4764    0.5728 H   0  0  0  0  0  0  0  0  0  0  0  0
   11.5507   -2.9011    2.1940 H   0  0  0  0  0  0  0  0  0  0  0  0
   11.7483   -1.2425    1.5781 H   0  0  0  0  0  0  0  0  0  0  0  0
   14.2826   -2.5752    1.4025 C   0  0  0  0  0  0  0  0  0  0  0  0
   14.4663   -2.2048    2.7049 N   0  0  0  0  0  0  0  0  0  0  0  0
   13.6578   -2.1023    3.3139 H   0  0  0  0  0  0  0  0  0  0  0  0
   15.3995   -2.2692    3.1034 H   0  0  0  0  0  0  0  0  0  0  0  0
   15.2786   -2.8996    0.6483 N   0  0  0  0  0  4  0  0  0  0  0  0
   16.2393   -2.9953    0.9841 H   0  0  0  0  0  0  0  0  0  0  0  0
   14.3346   -5.5396   -1.7139 C   0  0  0  0  0  0  0  0  0  0  0  0
   13.4054   -5.1228   -2.0924 H   0  0  0  0  0  0  0  0  0  0  0  0
   14.6525   -6.8726   -1.9628 C   0  0  0  0  0  0  0  0  0  0  0  0
   13.9547   -7.4828   -2.5273 H   0  0  0  0  0  0  0  0  0  0  0  0
  1  2  1  0
  2  3  2  0
  3  4  1  0
  3  5  1  0
  5  6  1  0
  5  7  2  0
  7  8  1  0
  8  9  1  0
  9 10  2  0
 10 11  1  0
 10 12  1  0
 12 13  1  0
 12 14  2  0
 14 15  1  0
 14 16  1  0
 16 17  1  0
 17 18  2  0
 18 19  1  0
 19 20  2  0
 20 21  1  0
 20 22  1  0
 22 23  1  0
 22 24  2  0
 24 25  1  0
 24 26  1  0
 26 27  1  0
 26 28  2  0
 28 29  1  0
 16 30  2  0
 30 31  1  0
  8 32  1  0
 32 33  2  0
 32 34  1  0
 34 35  1  0
 35 36  1  0
 35 37  1  0
 35 38  1  0
 34 39  1  0
 39 40  1  0
 40 41  1  0
 40 42  1  0
 39 43  2  0
 43 44  1  0
  7 45  1  0
 45 46  1  0
 45 47  2  0
 47 48  1  0
 47  2  1  0
 43  8  1  0
 30  9  1  0
 29 17  1  0
 28 19  1  0
M  CHG  1  43   1
M  END
>  <score>  (67) 
6.06507

$$$$

     RDKit          3D

 54 57  0  0  0  0  0  0  0  0999 V2000
   16.1205   -8.4856   -1.6117 H   0  0  0  0  0  0  0  0  0  0  0  0
   15.8538   -7.4398   -1.4727 C   0  0  0  0  0  0  0  0  0  0  0  0
   16.7299   -6.5818   -0.8035 C   0  0  0  0  0  0  0  0  0  0  0  0
   17.6724   -6.9569   -0.4166 H   0  0  0  0  0  0  0  0  0  0  0  0
   16.3914   -5.2378   -0.6102 C   0  0  0  0  0  0  0  0  0  0  0  0
   17.0669   -4.5864   -0.0640 H   0  0  0  0  0  0  0  0  0  0  0  0
   15.1740   -4.7144   -1.0760 C   0  0  0  0  0  0  0  0  0  0  0  0
   14.8173   -3.2502   -0.7857 C   0  0  0  0  0  0  0  0  0  0  0  0
   15.3808   -2.2393   -1.7820 C   0  0  0  0  0  0  0  0  0  0  0  0
   15.9387   -2.6315   -3.0078 C   0  0  0  0  0  0  0  0  0  0  0  0
   15.9999   -3.6845   -3.2561 H   0  0  0  0  0  0  0  0  0  0  0  0
   16.4230   -1.6829   -3.9161 C   0  0  0  0  0  0  0  0  0  0  0  0
   16.8519   -2.0000   -4.8603 H   0  0  0  0  0  0  0  0  0  0  0  0
   16.3518   -0.3183   -3.6115 C   0  0  0  0  0  0  0  0  0  0  0  0
   16.7025    0.4308   -4.3125 H   0  0  0  0  0  0  0  0  0  0  0  0
   15.7909    0.1113   -2.4057 C   0  0  0  0  0  0  0  0  0  0  0  0
   15.7155    1.4808   -2.0926 N   0  0  0  0  0  0  0  0  0  0  0  0
   16.8103    2.4120   -2.4288 C   0  0  0  0  0  0  0  0  0  0  0  0
   17.7451    1.8601   -2.5635 H   0  0  0  0  0  0  0  0  0  0  0  0
   16.5964    2.9289   -3.3659 H   0  0  0  0  0  0  0  0  0  0  0  0
   17.0002    3.4429   -1.3082 C   0  0  0  0  0  0  0  0  0  0  0  0
   17.3934    2.9267   -0.4331 H   0  0  0  0  0  0  0  0  0  0  0  0
   17.7474    4.1792   -1.6098 H   0  0  0  0  0  0  0  0  0  0  0  0
   15.7074    4.1637   -0.8978 C   0  0  0  0  0  0  0  0  0  0  0  0
   15.9009    4.7396    0.0162 H   0  0  0  0  0  0  0  0  0  0  0  0
   15.2519    5.1544   -1.9679 C   0  0  0  0  0  0  0  0  0  0  0  0
   15.0535    4.6539   -2.9182 H   0  0  0  0  0  0  0  0  0  0  0  0
   14.3471    5.6795   -1.6447 H   0  0  0  0  0  0  0  0  0  0  0  0
   16.0270    5.8998   -2.1330 H   0  0  0  0  0  0  0  0  0  0  0  0
   14.6175    3.1275   -0.6042 C   0  0  0  0  0  0  0  0  0  0  0  0
   14.8905    2.5990    0.3066 H   0  0  0  0  0  0  0  0  0  0  0  0
   13.6724    3.6399   -0.4128 H   0  0  0  0  0  0  0  0  0  0  0  0
   14.4287    2.0991   -1.7223 C   0  0  0  0  0  0  0  0  0  0  0  0
   13.9965    2.5975   -2.5931 H   0  0  0  0  0  0  0  0  0  0  0  0
   13.7181    1.3352   -1.3946 H   0  0  0  0  0  0  0  0  0  0  0  0
   15.3084   -0.8556   -1.5115 C   0  0  0  0  0  0  0  0  0  0  0  0
   14.8990   -0.5011   -0.5741 H   0  0  0  0  0  0  0  0  0  0  0  0
   13.3047   -3.0230   -0.6034 C   0  0  0  0  0  0  0  0  0  0  0  0
   12.4355   -3.0896   -1.4704 O   0  0  0  0  0  0  0  0  0  0  0  0
   13.0260   -2.6752    0.7022 N   0  0  0  0  0  0  0  0  0  0  0  0
   11.7196   -2.3132    1.2631 C   0  0  0  0  0  0  0  0  0  0  0  0
   11.5044   -2.9173    2.1484 H   0  0  0  0  0  0  0  0  0  0  0  0
   10.9120   -2.4760    0.5399 H   0  0  0  0  0  0  0  0  0  0  0  0
   11.6958   -1.2598    1.5579 H   0  0  0  0  0  0  0  0  0  0  0  0
   14.2277   -2.6298    1.3651 C   0  0  0  0  0  0  0  0  0  0  0  0
   14.3956   -2.3298    2.6868 N   0  0  0  0  0  0  0  0  0  0  0  0
   15.3325   -2.3523    3.0909 H   0  0  0  0  0  0  0  0  0  0  0  0
   13.5813   -2.1258    3.2622 H   0  0  0  0  0  0  0  0  0  0  0  0
   15.2222   -2.9082    0.5955 N   0  0  0  0  0  4  0  0  0  0  0  0
   16.1910   -2.9119    0.9100 H   0  0  0  0  0  0  0  0  0  0  0  0
   14.3040   -5.5873   -1.7678 C   0  0  0  0  0  0  0  0  0  0  0  0
   13.3538   -5.2308   -2.1552 H   0  0  0  0  0  0  0  0  0  0  0  0
   14.6430   -6.9387   -1.9617 C   0  0  0  0  0  0  0  0  0  0  0  0
   13.9721   -7.6119   -2.4883 H   0  0  0  0  0  0  0  0  0  0  0  0
  1  2  1  0
  2  3  2  0
  3  4  1  0
  3  5  1  0
  5  6  1  0
  5  7  2  0
  7  8  1  0
  8  9  1  0
  9 10  2  0
 10 11  1  0
 10 12  1  0
 12 13  1  0
 12 14  2  0
 14 15  1  0
 14 16  1  0
 16 17  1  0
 17 18  1  0
 18 19  1  0
 18 20  1  0
 18 21  1  0
 21 22  1  0
 21 23  1  0
 21 24  1  0
 24 25  1  0
 24 26  1  0
 26 27  1  0
 26 28  1  0
 26 29  1  0
 24 30  1  0
 30 31  1  0
 30 32  1  0
 30 33  1  0
 33 34  1  0
 33 35  1  0
 16 36  2  0
 36 37  1  0
  8 38  1  0
 38 39  2  0
 38 40  1  0
 40 41  1  0
 41 42  1  0
 41 43  1  0
 41 44  1  0
 40 45  1  0
 45 46  1  0
 46 47  1  0
 46 48  1  0
 45 49  2  0
 49 50  1  0
  7 51  1  0
 51 52  1  0
 51 53  2  0
 53 54  1  0
 53  2  1  0
 49  8  1  0
 36  9  1  0
 33 17  1  0
M  CHG  1  49   1
M  END
>  <score>  (68) 
6.05573

$$$$

     RDKit          3D

 52 55  0  0  0  0  0  0  0  0999 V2000
   16.1211   -8.4860   -1.6113 H   0  0  0  0  0  0  0  0  0  0  0  0
   15.8537   -7.4403   -1.4727 C   0  0  0  0  0  0  0  0  0  0  0  0
   16.7294   -6.5828   -0.8028 C   0  0  0  0  0  0  0  0  0  0  0  0
   17.6726   -6.9563   -0.4167 H   0  0  0  0  0  0  0  0  0  0  0  0
   16.3920   -5.2386   -0.6111 C   0  0  0  0  0  0  0  0  0  0  0  0
   17.0670   -4.5876   -0.0639 H   0  0  0  0  0  0  0  0  0  0  0  0
   15.1735   -4.7163   -1.0748 C   0  0  0  0  0  0  0  0  0  0  0  0
   14.8156   -3.2534   -0.7839 C   0  0  0  0  0  0  0  0  0  0  0  0
   15.3914   -2.2489   -1.7787 C   0  0  0  0  0  0  0  0  0  0  0  0
   15.9464   -2.6421   -3.0071 C   0  0  0  0  0  0  0  0  0  0  0  0
   16.0028   -3.6951   -3.2575 H   0  0  0  0  0  0  0  0  0  0  0  0
   16.4235   -1.6922   -3.9203 C   0  0  0  0  0  0  0  0  0  0  0  0
   16.8548   -2.0037   -4.8649 H   0  0  0  0  0  0  0  0  0  0  0  0
   16.3424   -0.3285   -3.6265 C   0  0  0  0  0  0  0  0  0  0  0  0
   16.6969    0.4073   -4.3440 H   0  0  0  0  0  0  0  0  0  0  0  0
   15.7860    0.0916   -2.4143 C   0  0  0  0  0  0  0  0  0  0  0  0
   15.6472    1.5648   -2.1074 C   0  0  0  0  0  0  0  0  0  0  0  0
   16.3849    2.1455   -2.6695 H   0  0  0  0  0  0  0  0  0  0  0  0
   15.8393    1.7513   -1.0466 H   0  0  0  0  0  0  0  0  0  0  0  0
   14.2569    2.0254   -2.4657 C   0  0  0  0  0  0  0  0  0  0  0  0
   13.9621    2.4637   -3.7591 C   0  0  0  0  0  0  0  0  0  0  0  0
   14.7476    2.4863   -4.5029 H   0  0  0  0  0  0  0  0  0  0  0  0
   12.6683    2.8592   -4.1045 C   0  0  0  0  0  0  0  0  0  0  0  0
   12.4738    3.1873   -5.1228 H   0  0  0  0  0  0  0  0  0  0  0  0
   11.6334    2.8170   -3.1530 C   0  0  0  0  0  0  0  0  0  0  0  0
   10.2280    3.2544   -3.5175 C   0  0  0  0  0  0  0  0  0  0  0  0
    9.2940    2.5894   -2.7835 F   0  0  0  0  0  0  0  0  0  0  0  0
   10.0990    4.5842   -3.2751 F   0  0  0  0  0  0  0  0  0  0  0  0
    9.9620    3.0263   -4.8320 F   0  0  0  0  0  0  0  0  0  0  0  0
   11.9339    2.3856   -1.8490 C   0  0  0  0  0  0  0  0  0  0  0  0
   11.1621    2.3393   -1.0847 H   0  0  0  0  0  0  0  0  0  0  0  0
   13.2322    1.9973   -1.5166 C   0  0  0  0  0  0  0  0  0  0  0  0
   13.4499    1.6653   -0.5106 H   0  0  0  0  0  0  0  0  0  0  0  0
   15.3186   -0.8695   -1.5055 C   0  0  0  0  0  0  0  0  0  0  0  0
   14.8871   -0.5318   -0.5692 H   0  0  0  0  0  0  0  0  0  0  0  0
   13.3010   -3.0275   -0.6032 C   0  0  0  0  0  0  0  0  0  0  0  0
   12.4331   -3.0881   -1.4706 O   0  0  0  0  0  0  0  0  0  0  0  0
   13.0243   -2.6751    0.7020 N   0  0  0  0  0  0  0  0  0  0  0  0
   11.7194   -2.3130    1.2630 C   0  0  0  0  0  0  0  0  0  0  0  0
   10.9120   -2.4798    0.5425 H   0  0  0  0  0  0  0  0  0  0  0  0
   11.6927   -1.2595    1.5540 H   0  0  0  0  0  0  0  0  0  0  0  0
   11.5052   -2.9131    2.1502 H   0  0  0  0  0  0  0  0  0  0  0  0
   14.2262   -2.6291    1.3657 C   0  0  0  0  0  0  0  0  0  0  0  0
   14.3955   -2.3301    2.6862 N   0  0  0  0  0  0  0  0  0  0  0  0
   13.5823   -2.1265    3.2621 H   0  0  0  0  0  0  0  0  0  0  0  0
   15.3319   -2.3541    3.0913 H   0  0  0  0  0  0  0  0  0  0  0  0
   15.2208   -2.9059    0.5946 N   0  0  0  0  0  4  0  0  0  0  0  0
   16.1898   -2.9129    0.9074 H   0  0  0  0  0  0  0  0  0  0  0  0
   14.3037   -5.5881   -1.7680 C   0  0  0  0  0  0  0  0  0  0  0  0
   13.3533   -5.2327   -2.1566 H   0  0  0  0  0  0  0  0  0  0  0  0
   14.6431   -6.9392   -1.9619 C   0  0  0  0  0  0  0  0  0  0  0  0
   13.9722   -7.6126   -2.4880 H   0  0  0  0  0  0  0  0  0  0  0  0
  1  2  1  0
  2  3  2  0
  3  4  1  0
  3  5  1  0
  5  6  1  0
  5  7  2  0
  7  8  1  0
  8  9  1  0
  9 10  2  0
 10 11  1  0
 10 12  1  0
 12 13  1  0
 12 14  2  0
 14 15  1  0
 14 16  1  0
 16 17  1  0
 17 18  1  0
 17 19  1  0
 17 20  1  0
 20 21  2  0
 21 22  1  0
 21 23  1  0
 23 24  1  0
 23 25  2  0
 25 26  1  0
 26 27  1  0
 26 28  1  0
 26 29  1  0
 25 30  1  0
 30 31  1  0
 30 32  2  0
 32 33  1  0
 16 34  2  0
 34 35  1  0
  8 36  1  0
 36 37  2  0
 36 38  1  0
 38 39  1  0
 39 40  1  0
 39 41  1  0
 39 42  1  0
 38 43  1  0
 43 44  1  0
 44 45  1  0
 44 46  1  0
 43 47  2  0
 47 48  1  0
  7 49  1  0
 49 50  1  0
 49 51  2  0
 51 52  1  0
 51  2  1  0
 47  8  1  0
 34  9  1  0
 32 20  1  0
M  CHG  1  47   1
M  END
>  <score>  (69) 
6.0521

$$$$

     RDKit          3D

 56 59  0  0  0  0  0  0  0  0999 V2000
   16.2859   -8.8718   -1.7275 H   0  0  0  0  0  0  0  0  0  0  0  0
   15.9843   -7.8683   -1.4478 C   0  0  0  0  0  0  0  0  0  0  0  0
   16.8410   -7.0651   -0.6865 C   0  0  0  0  0  0  0  0  0  0  0  0
   17.8188   -7.4313   -0.3900 H   0  0  0  0  0  0  0  0  0  0  0  0
   16.4442   -5.7778   -0.3175 C   0  0  0  0  0  0  0  0  0  0  0  0
   17.1238   -5.1383    0.2399 H   0  0  0  0  0  0  0  0  0  0  0  0
   15.1854   -5.2883   -0.6885 C   0  0  0  0  0  0  0  0  0  0  0  0
   14.7984   -3.8560   -0.4048 C   0  0  0  0  0  0  0  0  0  0  0  0
   15.2794   -3.0032   -1.5692 C   0  0  0  0  0  0  0  0  0  0  0  0
   15.3851   -3.5048   -2.8813 C   0  0  0  0  0  0  0  0  0  0  0  0
   15.1285   -4.5378   -3.0968 H   0  0  0  0  0  0  0  0  0  0  0  0
   15.8298   -2.6840   -3.9228 C   0  0  0  0  0  0  0  0  0  0  0  0
   15.9068   -3.0821   -4.9290 H   0  0  0  0  0  0  0  0  0  0  0  0
   16.1521   -1.3456   -3.6702 C   0  0  0  0  0  0  0  0  0  0  0  0
   16.4787   -0.7033   -4.4809 H   0  0  0  0  0  0  0  0  0  0  0  0
   16.0280   -0.8197   -2.3753 C   0  0  0  0  0  0  0  0  0  0  0  0
   16.2613    0.5950   -2.0661 C   0  0  0  0  0  0  0  0  0  0  0  0
   16.2784    1.5594   -3.0811 C   0  0  0  0  0  0  0  0  0  0  0  0
   16.1591    1.2513   -4.1139 H   0  0  0  0  0  0  0  0  0  0  0  0
   16.3430    2.9121   -2.7541 C   0  0  0  0  0  0  0  0  0  0  0  0
   16.3034    3.6735   -3.5143 H   0  0  0  0  0  0  0  0  0  0  0  0
   16.3642    3.3210   -1.4249 C   0  0  0  0  0  0  0  0  0  0  0  0
   16.2607    4.6406   -1.1056 O   0  0  0  0  0  0  0  0  0  0  0  0
   15.1408    5.3352   -1.6795 C   0  0  0  0  0  0  0  0  0  0  0  0
   15.4981    5.8955   -2.5471 H   0  0  0  0  0  0  0  0  0  0  0  0
   14.6161    6.2653   -0.5975 C   0  0  0  0  0  0  0  0  0  0  0  0
   13.7205    6.7818   -0.9452 H   0  0  0  0  0  0  0  0  0  0  0  0
   14.3368    5.6891    0.2884 H   0  0  0  0  0  0  0  0  0  0  0  0
   15.3661    7.0080   -0.3142 H   0  0  0  0  0  0  0  0  0  0  0  0
   13.9472    4.4663   -2.1061 C   0  0  0  0  0  0  0  0  0  0  0  0
   14.2616    3.6972   -2.8191 H   0  0  0  0  0  0  0  0  0  0  0  0
   13.4909    3.9860   -1.2314 H   0  0  0  0  0  0  0  0  0  0  0  0
   13.1889    5.0986   -2.5801 H   0  0  0  0  0  0  0  0  0  0  0  0
   16.4052    2.3699   -0.4100 C   0  0  0  0  0  0  0  0  0  0  0  0
   16.4253    2.6982    0.6237 H   0  0  0  0  0  0  0  0  0  0  0  0
   16.3685    1.0127   -0.7268 C   0  0  0  0  0  0  0  0  0  0  0  0
   16.3807    0.2864    0.0824 H   0  0  0  0  0  0  0  0  0  0  0  0
   15.5995   -1.6665   -1.3496 C   0  0  0  0  0  0  0  0  0  0  0  0
   15.4859   -1.2763   -0.3452 H   0  0  0  0  0  0  0  0  0  0  0  0
   13.2948   -3.6366   -0.1320 C   0  0  0  0  0  0  0  0  0  0  0  0
   12.3502   -3.9535   -0.8504 O   0  0  0  0  0  0  0  0  0  0  0  0
   13.1314   -2.9839    1.0734 N   0  0  0  0  0  0  0  0  0  0  0  0
   11.9192   -2.3229    1.5632 C   0  0  0  0  0  0  0  0  0  0  0  0
   11.0925   -2.4560    0.8574 H   0  0  0  0  0  0  0  0  0  0  0  0
   12.0964   -1.2470    1.6847 H   0  0  0  0  0  0  0  0  0  0  0  0
   11.6133   -2.7336    2.5333 H   0  0  0  0  0  0  0  0  0  0  0  0
   14.3818   -2.8078    1.6049 C   0  0  0  0  0  0  0  0  0  0  0  0
   14.6062   -2.0869    2.7372 N   0  0  0  0  0  0  0  0  0  0  0  0
   13.8057   -1.8927    3.3375 H   0  0  0  0  0  0  0  0  0  0  0  0
   15.5199   -2.1709    3.1671 H   0  0  0  0  0  0  0  0  0  0  0  0
   15.3138   -3.3615    0.8933 N   0  0  0  0  0  4  0  0  0  0  0  0
   16.3070   -3.2459    1.0897 H   0  0  0  0  0  0  0  0  0  0  0  0
   14.3449   -6.0889   -1.4762 C   0  0  0  0  0  0  0  0  0  0  0  0
   13.3955   -5.6905   -1.8217 H   0  0  0  0  0  0  0  0  0  0  0  0
   14.7417   -7.3727   -1.8554 C   0  0  0  0  0  0  0  0  0  0  0  0
   14.0840   -7.9743   -2.4750 H   0  0  0  0  0  0  0  0  0  0  0  0
  1  2  1  0
  2  3  2  0
  3  4  1  0
  3  5  1  0
  5  6  1  0
  5  7  2  0
  7  8  1  0
  8  9  1  0
  9 10  2  0
 10 11  1  0
 10 12  1  0
 12 13  1  0
 12 14  2  0
 14 15  1  0
 14 16  1  0
 16 17  1  0
 17 18  2  0
 18 19  1  0
 18 20  1  0
 20 21  1  0
 20 22  2  0
 22 23  1  0
 23 24  1  0
 24 25  1  0
 24 26  1  0
 26 27  1  0
 26 28  1  0
 26 29  1  0
 24 30  1  0
 30 31  1  0
 30 32  1  0
 30 33  1  0
 22 34  1  0
 34 35  1  0
 34 36  2  0
 36 37  1  0
 16 38  2  0
 38 39  1  0
  8 40  1  0
 40 41  2  0
 40 42  1  0
 42 43  1  0
 43 44  1  0
 43 45  1  0
 43 46  1  0
 42 47  1  0
 47 48  1  0
 48 49  1  0
 48 50  1  0
 47 51  2  0
 51 52  1  0
  7 53  1  0
 53 54  1  0
 53 55  2  0
 55 56  1  0
 55  2  1  0
 51  8  1  0
 38  9  1  0
 36 17  1  0
M  CHG  1  51   1
M  END
>  <score>  (70) 
6.05064

$$$$

     RDKit          3D

 54 57  0  0  0  0  0  0  0  0999 V2000
   16.1232   -8.4397   -1.6843 H   0  0  0  0  0  0  0  0  0  0  0  0
   15.8834   -7.3961   -1.4985 C   0  0  0  0  0  0  0  0  0  0  0  0
   16.7699   -6.5731   -0.8007 C   0  0  0  0  0  0  0  0  0  0  0  0
   17.7151   -6.9814   -0.4601 H   0  0  0  0  0  0  0  0  0  0  0  0
   16.4377   -5.2366   -0.5382 C   0  0  0  0  0  0  0  0  0  0  0  0
   17.1459   -4.6104   -0.0031 H   0  0  0  0  0  0  0  0  0  0  0  0
   15.2116   -4.6994   -0.9719 C   0  0  0  0  0  0  0  0  0  0  0  0
   14.8323   -3.2449   -0.6761 C   0  0  0  0  0  0  0  0  0  0  0  0
   15.4139   -2.2553   -1.6777 C   0  0  0  0  0  0  0  0  0  0  0  0
   15.9553   -2.6703   -2.9064 C   0  0  0  0  0  0  0  0  0  0  0  0
   16.0107   -3.7318   -3.1319 H   0  0  0  0  0  0  0  0  0  0  0  0
   16.4102   -1.7297   -3.8388 C   0  0  0  0  0  0  0  0  0  0  0  0
   16.8259   -2.0633   -4.7838 H   0  0  0  0  0  0  0  0  0  0  0  0
   16.3147   -0.3621   -3.5591 C   0  0  0  0  0  0  0  0  0  0  0  0
   16.6679    0.3625   -4.2867 H   0  0  0  0  0  0  0  0  0  0  0  0
   15.7735    0.0722   -2.3446 C   0  0  0  0  0  0  0  0  0  0  0  0
   15.6370    1.5428   -2.0468 C   0  0  0  0  0  0  0  0  0  0  0  0
   15.7313    1.7149   -0.9721 H   0  0  0  0  0  0  0  0  0  0  0  0
   16.4278    2.1111   -2.5456 H   0  0  0  0  0  0  0  0  0  0  0  0
   14.2753    2.0467   -2.5171 C   0  0  0  0  0  0  0  0  0  0  0  0
   14.2164    1.9856   -3.6084 H   0  0  0  0  0  0  0  0  0  0  0  0
   13.4803    1.4168   -2.1058 H   0  0  0  0  0  0  0  0  0  0  0  0
   14.0504    3.4392   -2.0923 N   0  0  0  0  0  0  0  0  0  0  0  0
   13.8503    3.7034   -0.6620 C   0  0  0  0  0  0  0  0  0  0  0  0
   13.7564    2.7795   -0.0850 H   0  0  0  0  0  0  0  0  0  0  0  0
   12.9393    4.2916   -0.5160 H   0  0  0  0  0  0  0  0  0  0  0  0
   15.0673    4.5073   -0.2207 C   0  0  0  0  0  0  0  0  0  0  0  0
   15.7233    3.8982    0.4074 H   0  0  0  0  0  0  0  0  0  0  0  0
   14.7565    5.3853    0.3525 H   0  0  0  0  0  0  0  0  0  0  0  0
   15.7946    4.9223   -1.4933 C   0  0  0  0  0  0  0  0  0  0  0  0
   15.9418    6.0019   -1.5271 H   0  0  0  0  0  0  0  0  0  0  0  0
   16.7692    4.4272   -1.5495 H   0  0  0  0  0  0  0  0  0  0  0  0
   14.9227    4.4762   -2.6482 C   0  0  0  0  0  0  0  0  0  0  0  0
   14.3304    5.3147   -3.0289 H   0  0  0  0  0  0  0  0  0  0  0  0
   15.5417    4.0916   -3.4543 H   0  0  0  0  0  0  0  0  0  0  0  0
   15.3255   -0.8761   -1.4174 C   0  0  0  0  0  0  0  0  0  0  0  0
   14.8902   -0.5299   -0.4840 H   0  0  0  0  0  0  0  0  0  0  0  0
   13.3088   -3.0237   -0.5878 C   0  0  0  0  0  0  0  0  0  0  0  0
   12.4880   -3.2608   -1.4700 O   0  0  0  0  0  0  0  0  0  0  0  0
   12.9626   -2.5233    0.6583 N   0  0  0  0  0  0  0  0  0  0  0  0
   11.6142   -2.2729    1.1873 C   0  0  0  0  0  0  0  0  0  0  0  0
   11.3992   -2.9456    2.0230 H   0  0  0  0  0  0  0  0  0  0  0  0
   10.8353   -2.4322    0.4372 H   0  0  0  0  0  0  0  0  0  0  0  0
   11.5098   -1.2425    1.5439 H   0  0  0  0  0  0  0  0  0  0  0  0
   14.1274   -2.4891    1.3948 C   0  0  0  0  0  0  0  0  0  0  0  0
   14.2752   -2.1009    2.6970 N   0  0  0  0  0  0  0  0  0  0  0  0
   13.4390   -1.8927    3.2420 H   0  0  0  0  0  0  0  0  0  0  0  0
   15.1530   -2.3345    3.1649 H   0  0  0  0  0  0  0  0  0  0  0  0
   15.1573   -2.8722    0.7169 N   0  0  0  0  0  4  0  0  0  0  0  0
   16.1129   -2.8122    1.0665 H   0  0  0  0  0  0  0  0  0  0  0  0
   14.3424   -5.5348   -1.7015 C   0  0  0  0  0  0  0  0  0  0  0  0
   13.4019   -5.1431   -2.0784 H   0  0  0  0  0  0  0  0  0  0  0  0
   14.6720   -6.8731   -1.9529 C   0  0  0  0  0  0  0  0  0  0  0  0
   13.9897   -7.5017   -2.5153 H   0  0  0  0  0  0  0  0  0  0  0  0
  1  2  1  0
  2  3  2  0
  3  4  1  0
  3  5  1  0
  5  6  1  0
  5  7  2  0
  7  8  1  0
  8  9  1  0
  9 10  2  0
 10 11  1  0
 10 12  1  0
 12 13  1  0
 12 14  2  0
 14 15  1  0
 14 16  1  0
 16 17  1  0
 17 18  1  0
 17 19  1  0
 17 20  1  0
 20 21  1  0
 20 22  1  0
 20 23  1  0
 23 24  1  0
 24 25  1  0
 24 26  1  0
 24 27  1  0
 27 28  1  0
 27 29  1  0
 27 30  1  0
 30 31  1  0
 30 32  1  0
 30 33  1  0
 33 34  1  0
 33 35  1  0
 16 36  2  0
 36 37  1  0
  8 38  1  0
 38 39  2  0
 38 40  1  0
 40 41  1  0
 41 42  1  0
 41 43  1  0
 41 44  1  0
 40 45  1  0
 45 46  1  0
 46 47  1  0
 46 48  1  0
 45 49  2  0
 49 50  1  0
  7 51  1  0
 51 52  1  0
 51 53  2  0
 53 54  1  0
 53  2  1  0
 49  8  1  0
 36  9  1  0
 33 23  1  0
M  CHG  1  49   1
M  END
>  <score>  (71) 
6.04852

$$$$

     RDKit          3D

 47 50  0  0  0  0  0  0  0  0999 V2000
   16.1030   -8.4671   -1.6145 H   0  0  0  0  0  0  0  0  0  0  0  0
   15.8577   -7.4158   -1.4825 C   0  0  0  0  0  0  0  0  0  0  0  0
   16.7388   -6.5658   -0.8081 C   0  0  0  0  0  0  0  0  0  0  0  0
   17.6686   -6.9595   -0.4100 H   0  0  0  0  0  0  0  0  0  0  0  0
   16.4065   -5.2192   -0.6113 C   0  0  0  0  0  0  0  0  0  0  0  0
   17.0731   -4.5687   -0.0530 H   0  0  0  0  0  0  0  0  0  0  0  0
   15.1931   -4.6928   -1.0818 C   0  0  0  0  0  0  0  0  0  0  0  0
   14.8291   -3.2359   -0.7725 C   0  0  0  0  0  0  0  0  0  0  0  0
   15.3722   -2.2110   -1.7657 C   0  0  0  0  0  0  0  0  0  0  0  0
   15.9312   -2.6065   -2.9901 C   0  0  0  0  0  0  0  0  0  0  0  0
   15.9838   -3.6619   -3.2270 H   0  0  0  0  0  0  0  0  0  0  0  0
   16.4149   -1.6580   -3.9008 C   0  0  0  0  0  0  0  0  0  0  0  0
   16.8419   -1.9752   -4.8463 H   0  0  0  0  0  0  0  0  0  0  0  0
   16.3494   -0.2958   -3.5931 C   0  0  0  0  0  0  0  0  0  0  0  0
   16.7224    0.4578   -4.2804 H   0  0  0  0  0  0  0  0  0  0  0  0
   15.7893    0.1283   -2.3912 C   0  0  0  0  0  0  0  0  0  0  0  0
   15.7415    1.4939   -2.0779 N   0  0  0  0  0  0  0  0  0  0  0  0
   14.7436    2.0650   -1.3223 C   0  0  0  0  0  0  0  0  0  0  0  0
   13.6846    1.5242   -1.0314 O   0  0  0  0  0  0  0  0  0  0  0  0
   14.9999    3.5525   -1.1464 C   0  0  0  0  0  0  0  0  0  0  0  0
   15.0174    3.8215   -0.0868 H   0  0  0  0  0  0  0  0  0  0  0  0
   14.2172    4.1219   -1.6535 H   0  0  0  0  0  0  0  0  0  0  0  0
   16.3706    3.7819   -1.8071 C   0  0  0  0  0  0  0  0  0  0  0  0
   16.3594    4.6528   -2.4765 H   0  0  0  0  0  0  0  0  0  0  0  0
   17.1337    3.9686   -1.0397 H   0  0  0  0  0  0  0  0  0  0  0  0
   16.6925    2.4859   -2.5750 C   0  0  0  0  0  0  0  0  0  0  0  0
   16.5681    2.6354   -3.6556 H   0  0  0  0  0  0  0  0  0  0  0  0
   17.7250    2.1796   -2.3707 H   0  0  0  0  0  0  0  0  0  0  0  0
   15.2886   -0.8287   -1.4957 C   0  0  0  0  0  0  0  0  0  0  0  0
   14.8518   -0.4698   -0.5697 H   0  0  0  0  0  0  0  0  0  0  0  0
   13.3119   -3.0271   -0.5958 C   0  0  0  0  0  0  0  0  0  0  0  0
   12.4523   -3.1251   -1.4658 O   0  0  0  0  0  0  0  0  0  0  0  0
   13.0298   -2.6825    0.7114 N   0  0  0  0  0  0  0  0  0  0  0  0
   11.7218   -2.3125    1.2690 C   0  0  0  0  0  0  0  0  0  0  0  0
   11.5073   -2.9175    2.1596 H   0  0  0  0  0  0  0  0  0  0  0  0
   11.7116   -1.2522    1.5547 H   0  0  0  0  0  0  0  0  0  0  0  0
   10.9158   -2.4762    0.5400 H   0  0  0  0  0  0  0  0  0  0  0  0
   14.2366   -2.6251    1.3677 C   0  0  0  0  0  0  0  0  0  0  0  0
   14.4066   -2.3113    2.6781 N   0  0  0  0  0  0  0  0  0  0  0  0
   13.5908   -2.1203    3.2571 H   0  0  0  0  0  0  0  0  0  0  0  0
   15.3451   -2.3352    3.0795 H   0  0  0  0  0  0  0  0  0  0  0  0
   15.2431   -2.9078    0.6097 N   0  0  0  0  0  4  0  0  0  0  0  0
   16.2069   -2.9535    0.9471 H   0  0  0  0  0  0  0  0  0  0  0  0
   14.3167   -5.5588   -1.7685 C   0  0  0  0  0  0  0  0  0  0  0  0
   13.3597   -5.1867   -2.1215 H   0  0  0  0  0  0  0  0  0  0  0  0
   14.6471   -6.9107   -1.9666 C   0  0  0  0  0  0  0  0  0  0  0  0
   13.9639   -7.5776   -2.4853 H   0  0  0  0  0  0  0  0  0  0  0  0
  1  2  1  0
  2  3  2  0
  3  4  1  0
  3  5  1  0
  5  6  1  0
  5  7  2  0
  7  8  1  0
  8  9  1  0
  9 10  2  0
 10 11  1  0
 10 12  1  0
 12 13  1  0
 12 14  2  0
 14 15  1  0
 14 16  1  0
 16 17  1  0
 17 18  1  0
 18 19  2  0
 18 20  1  0
 20 21  1  0
 20 22  1  0
 20 23  1  0
 23 24  1  0
 23 25  1  0
 23 26  1  0
 26 27  1  0
 26 28  1  0
 16 29  2  0
 29 30  1  0
  8 31  1  0
 31 32  2  0
 31 33  1  0
 33 34  1  0
 34 35  1  0
 34 36  1  0
 34 37  1  0
 33 38  1  0
 38 39  1  0
 39 40  1  0
 39 41  1  0
 38 42  2  0
 42 43  1  0
  7 44  1  0
 44 45  1  0
 44 46  2  0
 46 47  1  0
 46  2  1  0
 42  8  1  0
 29  9  1  0
 26 17  1  0
M  CHG  1  42   1
M  END
>  <score>  (72) 
6.0437

$$$$

     RDKit          3D

 52 55  0  0  0  0  0  0  0  0999 V2000
   16.0966   -8.4396   -1.6310 H   0  0  0  0  0  0  0  0  0  0  0  0
   15.8557   -7.3903   -1.4883 C   0  0  0  0  0  0  0  0  0  0  0  0
   16.7473   -6.5595   -0.8022 C   0  0  0  0  0  0  0  0  0  0  0  0
   17.6829   -6.9516   -0.4126 H   0  0  0  0  0  0  0  0  0  0  0  0
   16.4256   -5.2151   -0.5965 C   0  0  0  0  0  0  0  0  0  0  0  0
   17.1107   -4.5697   -0.0535 H   0  0  0  0  0  0  0  0  0  0  0  0
   15.2058   -4.6894   -1.0467 C   0  0  0  0  0  0  0  0  0  0  0  0
   14.8376   -3.2462   -0.7474 C   0  0  0  0  0  0  0  0  0  0  0  0
   15.4066   -2.2520   -1.7508 C   0  0  0  0  0  0  0  0  0  0  0  0
   15.9375   -2.6567   -2.9882 C   0  0  0  0  0  0  0  0  0  0  0  0
   15.9893   -3.7132   -3.2282 H   0  0  0  0  0  0  0  0  0  0  0  0
   16.4052   -1.7157   -3.9184 C   0  0  0  0  0  0  0  0  0  0  0  0
   16.8239   -2.0291   -4.8706 H   0  0  0  0  0  0  0  0  0  0  0  0
   16.3352   -0.3525   -3.6215 C   0  0  0  0  0  0  0  0  0  0  0  0
   16.6861    0.3915   -4.3324 H   0  0  0  0  0  0  0  0  0  0  0  0
   15.8077    0.0677   -2.3988 C   0  0  0  0  0  0  0  0  0  0  0  0
   15.6877    1.4806   -2.0899 C   0  0  0  0  0  0  0  0  0  0  0  0
   15.3527    2.3955   -3.0931 C   0  0  0  0  0  0  0  0  0  0  0  0
   15.2344    2.0640   -4.1189 H   0  0  0  0  0  0  0  0  0  0  0  0
   15.1748    3.7366   -2.7683 C   0  0  0  0  0  0  0  0  0  0  0  0
   14.8938    4.4584   -3.5279 H   0  0  0  0  0  0  0  0  0  0  0  0
   15.3869    4.1708   -1.4568 C   0  0  0  0  0  0  0  0  0  0  0  0
   15.2153    5.6172   -1.1313 C   0  0  0  0  0  0  0  0  0  0  0  0
   15.3218    6.2103   -2.0387 H   0  0  0  0  0  0  0  0  0  0  0  0
   14.2300    5.7771   -0.6915 H   0  0  0  0  0  0  0  0  0  0  0  0
   15.9672    5.9382   -0.4154 H   0  0  0  0  0  0  0  0  0  0  0  0
   15.7809    3.2701   -0.4615 C   0  0  0  0  0  0  0  0  0  0  0  0
   16.1343    3.7655    0.9114 C   0  0  0  0  0  0  0  0  0  0  0  0
   16.2679    2.9417    1.6146 H   0  0  0  0  0  0  0  0  0  0  0  0
   17.0717    4.3166    0.8422 H   0  0  0  0  0  0  0  0  0  0  0  0
   15.3592    4.4346    1.2958 H   0  0  0  0  0  0  0  0  0  0  0  0
   15.9154    1.9237   -0.7838 C   0  0  0  0  0  0  0  0  0  0  0  0
   16.2432    1.2234   -0.0242 H   0  0  0  0  0  0  0  0  0  0  0  0
   15.3504   -0.8780   -1.4752 C   0  0  0  0  0  0  0  0  0  0  0  0
   14.9270   -0.5282   -0.5371 H   0  0  0  0  0  0  0  0  0  0  0  0
   13.3165   -3.0433   -0.5851 C   0  0  0  0  0  0  0  0  0  0  0  0
   12.4497   -3.1779   -1.4509 O   0  0  0  0  0  0  0  0  0  0  0  0
   13.0446   -2.6834    0.7182 N   0  0  0  0  0  0  0  0  0  0  0  0
   11.7423   -2.3158    1.2798 C   0  0  0  0  0  0  0  0  0  0  0  0
   10.9399   -2.4784    0.5556 H   0  0  0  0  0  0  0  0  0  0  0  0
   11.5079   -2.9097    2.1690 H   0  0  0  0  0  0  0  0  0  0  0  0
   11.7309   -1.2594    1.5623 H   0  0  0  0  0  0  0  0  0  0  0  0
   14.2520   -2.6117    1.3824 C   0  0  0  0  0  0  0  0  0  0  0  0
   14.4269   -2.2633    2.6851 N   0  0  0  0  0  0  0  0  0  0  0  0
   15.3648   -2.3114    3.0865 H   0  0  0  0  0  0  0  0  0  0  0  0
   13.6155   -2.1191    3.2804 H   0  0  0  0  0  0  0  0  0  0  0  0
   15.2544   -2.9148    0.6287 N   0  0  0  0  0  4  0  0  0  0  0  0
   16.2173   -2.9884    0.9605 H   0  0  0  0  0  0  0  0  0  0  0  0
   14.3247   -5.5278   -1.7508 C   0  0  0  0  0  0  0  0  0  0  0  0
   13.3738   -5.1424   -2.1076 H   0  0  0  0  0  0  0  0  0  0  0  0
   14.6491   -6.8720   -1.9717 C   0  0  0  0  0  0  0  0  0  0  0  0
   13.9519   -7.5238   -2.4905 H   0  0  0  0  0  0  0  0  0  0  0  0
  1  2  1  0
  2  3  2  0
  3  4  1  0
  3  5  1  0
  5  6  1  0
  5  7  2  0
  7  8  1  0
  8  9  1  0
  9 10  2  0
 10 11  1  0
 10 12  1  0
 12 13  1  0
 12 14  2  0
 14 15  1  0
 14 16  1  0
 16 17  1  0
 17 18  2  0
 18 19  1  0
 18 20  1  0
 20 21  1  0
 20 22  2  0
 22 23  1  0
 23 24  1  0
 23 25  1  0
 23 26  1  0
 22 27  1  0
 27 28  1  0
 28 29  1  0
 28 30  1  0
 28 31  1  0
 27 32  2  0
 32 33  1  0
 16 34  2  0
 34 35  1  0
  8 36  1  0
 36 37  2  0
 36 38  1  0
 38 39  1  0
 39 40  1  0
 39 41  1  0
 39 42  1  0
 38 43  1  0
 43 44  1  0
 44 45  1  0
 44 46  1  0
 43 47  2  0
 47 48  1  0
  7 49  1  0
 49 50  1  0
 49 51  2  0
 51 52  1  0
 51  2  1  0
 47  8  1  0
 34  9  1  0
 32 17  1  0
M  CHG  1  47   1
M  END
>  <score>  (73) 
6.04312

$$$$

     RDKit          3D

 49 52  0  0  0  0  0  0  0  0999 V2000
   16.1178   -8.4832   -1.6119 H   0  0  0  0  0  0  0  0  0  0  0  0
   15.8540   -7.4362   -1.4744 C   0  0  0  0  0  0  0  0  0  0  0  0
   16.7313   -6.5796   -0.8050 C   0  0  0  0  0  0  0  0  0  0  0  0
   17.6711   -6.9573   -0.4152 H   0  0  0  0  0  0  0  0  0  0  0  0
   16.3948   -5.2352   -0.6112 C   0  0  0  0  0  0  0  0  0  0  0  0
   17.0664   -4.5826   -0.0612 H   0  0  0  0  0  0  0  0  0  0  0  0
   15.1776   -4.7139   -1.0766 C   0  0  0  0  0  0  0  0  0  0  0  0
   14.8185   -3.2528   -0.7837 C   0  0  0  0  0  0  0  0  0  0  0  0
   15.3923   -2.2461   -1.7775 C   0  0  0  0  0  0  0  0  0  0  0  0
   15.9420   -2.6407   -3.0058 C   0  0  0  0  0  0  0  0  0  0  0  0
   16.0004   -3.6950   -3.2518 H   0  0  0  0  0  0  0  0  0  0  0  0
   16.4174   -1.6913   -3.9195 C   0  0  0  0  0  0  0  0  0  0  0  0
   16.8551   -2.0050   -4.8609 H   0  0  0  0  0  0  0  0  0  0  0  0
   16.3356   -0.3270   -3.6249 C   0  0  0  0  0  0  0  0  0  0  0  0
   16.7064    0.4104   -4.3319 H   0  0  0  0  0  0  0  0  0  0  0  0
   15.7926    0.1024   -2.4077 C   0  0  0  0  0  0  0  0  0  0  0  0
   15.7142    1.5419   -2.0896 C   0  0  0  0  0  0  0  0  0  0  0  0
   15.9693    2.0063   -0.7890 C   0  0  0  0  0  0  0  0  0  0  0  0
   16.2332    1.3060   -0.0072 H   0  0  0  0  0  0  0  0  0  0  0  0
   15.8875    3.3673   -0.4829 C   0  0  0  0  0  0  0  0  0  0  0  0
   16.0914    3.7304    0.5204 H   0  0  0  0  0  0  0  0  0  0  0  0
   15.5164    4.2814   -1.4670 C   0  0  0  0  0  0  0  0  0  0  0  0
   15.3639    5.7294   -1.1220 C   0  0  0  0  0  0  0  0  0  0  0  0
   15.6328    6.3278   -1.9934 H   0  0  0  0  0  0  0  0  0  0  0  0
   15.9991    5.9650   -0.2689 H   0  0  0  0  0  0  0  0  0  0  0  0
   14.3430    5.9892   -0.8320 H   0  0  0  0  0  0  0  0  0  0  0  0
   15.2757    3.8430   -2.7678 C   0  0  0  0  0  0  0  0  0  0  0  0
   14.9910    4.5783   -3.5144 H   0  0  0  0  0  0  0  0  0  0  0  0
   15.3780    2.4825   -3.0781 C   0  0  0  0  0  0  0  0  0  0  0  0
   15.1559    2.1504   -4.0844 H   0  0  0  0  0  0  0  0  0  0  0  0
   15.3293   -0.8659   -1.4998 C   0  0  0  0  0  0  0  0  0  0  0  0
   14.8974   -0.5278   -0.5643 H   0  0  0  0  0  0  0  0  0  0  0  0
   13.3043   -3.0307   -0.6004 C   0  0  0  0  0  0  0  0  0  0  0  0
   12.4350   -3.0962   -1.4663 O   0  0  0  0  0  0  0  0  0  0  0  0
   13.0243   -2.6790    0.7039 N   0  0  0  0  0  0  0  0  0  0  0  0
   11.7201   -2.3136    1.2643 C   0  0  0  0  0  0  0  0  0  0  0  0
   11.5033   -2.9179    2.1495 H   0  0  0  0  0  0  0  0  0  0  0  0
   11.6976   -1.2599    1.5598 H   0  0  0  0  0  0  0  0  0  0  0  0
   10.9112   -2.4736    0.5408 H   0  0  0  0  0  0  0  0  0  0  0  0
   14.2296   -2.6280    1.3648 C   0  0  0  0  0  0  0  0  0  0  0  0
   14.3975   -2.3258    2.6835 N   0  0  0  0  0  0  0  0  0  0  0  0
   15.3349   -2.3505    3.0882 H   0  0  0  0  0  0  0  0  0  0  0  0
   13.5831   -2.1264    3.2595 H   0  0  0  0  0  0  0  0  0  0  0  0
   15.2231   -2.9061    0.5940 N   0  0  0  0  0  4  0  0  0  0  0  0
   16.1912   -2.9198    0.9113 H   0  0  0  0  0  0  0  0  0  0  0  0
   14.3059   -5.5835   -1.7679 C   0  0  0  0  0  0  0  0  0  0  0  0
   13.3543   -5.2239   -2.1493 H   0  0  0  0  0  0  0  0  0  0  0  0
   14.6436   -6.9346   -1.9626 C   0  0  0  0  0  0  0  0  0  0  0  0
   13.9713   -7.6070   -2.4878 H   0  0  0  0  0  0  0  0  0  0  0  0
  1  2  1  0
  2  3  2  0
  3  4  1  0
  3  5  1  0
  5  6  1  0
  5  7  2  0
  7  8  1  0
  8  9  1  0
  9 10  2  0
 10 11  1  0
 10 12  1  0
 12 13  1  0
 12 14  2  0
 14 15  1  0
 14 16  1  0
 16 17  1  0
 17 18  2  0
 18 19  1  0
 18 20  1  0
 20 21  1  0
 20 22  2  0
 22 23  1  0
 23 24  1  0
 23 25  1  0
 23 26  1  0
 22 27  1  0
 27 28  1  0
 27 29  2  0
 29 30  1  0
 16 31  2  0
 31 32  1  0
  8 33  1  0
 33 34  2  0
 33 35  1  0
 35 36  1  0
 36 37  1  0
 36 38  1  0
 36 39  1  0
 35 40  1  0
 40 41  1  0
 41 42  1  0
 41 43  1  0
 40 44  2  0
 44 45  1  0
  7 46  1  0
 46 47  1  0
 46 48  2  0
 48 49  1  0
 48  2  1  0
 44  8  1  0
 31  9  1  0
 29 17  1  0
M  CHG  1  44   1
M  END
>  <score>  (74) 
6.03881

$$$$

     RDKit          3D

 50 53  0  0  0  0  0  0  0  0999 V2000
   16.1262   -8.4900   -1.6110 H   0  0  0  0  0  0  0  0  0  0  0  0
   15.8540   -7.4462   -1.4695 C   0  0  0  0  0  0  0  0  0  0  0  0
   16.7266   -6.5875   -0.7987 C   0  0  0  0  0  0  0  0  0  0  0  0
   17.6758   -6.9553   -0.4197 H   0  0  0  0  0  0  0  0  0  0  0  0
   16.3843   -5.2443   -0.6081 C   0  0  0  0  0  0  0  0  0  0  0  0
   17.0691   -4.5956   -0.0703 H   0  0  0  0  0  0  0  0  0  0  0  0
   15.1649   -4.7217   -1.0718 C   0  0  0  0  0  0  0  0  0  0  0  0
   14.8109   -3.2523   -0.7852 C   0  0  0  0  0  0  0  0  0  0  0  0
   15.3869   -2.2470   -1.7830 C   0  0  0  0  0  0  0  0  0  0  0  0
   15.9418   -2.6383   -3.0120 C   0  0  0  0  0  0  0  0  0  0  0  0
   16.0067   -3.6894   -3.2673 H   0  0  0  0  0  0  0  0  0  0  0  0
   16.4210   -1.6893   -3.9227 C   0  0  0  0  0  0  0  0  0  0  0  0
   16.8609   -2.0059   -4.8624 H   0  0  0  0  0  0  0  0  0  0  0  0
   16.3368   -0.3268   -3.6242 C   0  0  0  0  0  0  0  0  0  0  0  0
   16.7015    0.4151   -4.3258 H   0  0  0  0  0  0  0  0  0  0  0  0
   15.7913    0.1007   -2.4100 C   0  0  0  0  0  0  0  0  0  0  0  0
   15.7091    1.4747   -2.1085 N   0  0  0  0  0  0  0  0  0  0  0  0
   15.8042    1.9779   -0.7140 C   0  0  0  0  0  0  0  0  0  0  0  0
   14.8122    2.0028   -0.2662 H   0  0  0  0  0  0  0  0  0  0  0  0
   16.4313    1.3207   -0.1123 H   0  0  0  0  0  0  0  0  0  0  0  0
   16.3948    3.4077   -0.6583 C   0  0  0  0  0  0  0  0  0  0  0  0
   16.4248    3.7621    0.3747 H   0  0  0  0  0  0  0  0  0  0  0  0
   17.4277    3.3661   -1.0184 H   0  0  0  0  0  0  0  0  0  0  0  0
   15.6303    4.3766   -1.4804 N   0  0  0  0  0  0  0  0  0  0  0  0
   15.0486    4.9932   -0.9023 H   0  0  0  0  0  0  0  0  0  0  0  0
   14.8523    3.7872   -2.5941 C   0  0  0  0  0  0  0  0  0  0  0  0
   13.8604    3.5331   -2.2178 H   0  0  0  0  0  0  0  0  0  0  0  0
   14.7220    4.5256   -3.3914 H   0  0  0  0  0  0  0  0  0  0  0  0
   15.4914    2.4960   -3.1649 C   0  0  0  0  0  0  0  0  0  0  0  0
   16.4394    2.7531   -3.6384 H   0  0  0  0  0  0  0  0  0  0  0  0
   14.8255    2.0990   -3.9329 H   0  0  0  0  0  0  0  0  0  0  0  0
   15.3235   -0.8654   -1.5072 C   0  0  0  0  0  0  0  0  0  0  0  0
   14.8956   -0.5137   -0.5762 H   0  0  0  0  0  0  0  0  0  0  0  0
   13.2990   -3.0133   -0.6116 C   0  0  0  0  0  0  0  0  0  0  0  0
   12.4283   -3.0802   -1.4777 O   0  0  0  0  0  0  0  0  0  0  0  0
   13.0221   -2.6691    0.6978 N   0  0  0  0  0  0  0  0  0  0  0  0
   11.7199   -2.3131    1.2611 C   0  0  0  0  0  0  0  0  0  0  0  0
   10.9150   -2.4759    0.5383 H   0  0  0  0  0  0  0  0  0  0  0  0
   11.6934   -1.2607    1.5585 H   0  0  0  0  0  0  0  0  0  0  0  0
   11.5021   -2.9192    2.1448 H   0  0  0  0  0  0  0  0  0  0  0  0
   14.2240   -2.6318    1.3670 C   0  0  0  0  0  0  0  0  0  0  0  0
   14.3914   -2.3370    2.6905 N   0  0  0  0  0  0  0  0  0  0  0  0
   13.5793   -2.1266    3.2671 H   0  0  0  0  0  0  0  0  0  0  0  0
   15.3261   -2.3574    3.0963 H   0  0  0  0  0  0  0  0  0  0  0  0
   15.2189   -2.9113    0.5945 N   0  0  0  0  0  4  0  0  0  0  0  0
   16.1907   -2.8977    0.9007 H   0  0  0  0  0  0  0  0  0  0  0  0
   14.2994   -5.5970   -1.7681 C   0  0  0  0  0  0  0  0  0  0  0  0
   13.3524   -5.2461   -2.1688 H   0  0  0  0  0  0  0  0  0  0  0  0
   14.6427   -6.9483   -1.9603 C   0  0  0  0  0  0  0  0  0  0  0  0
   13.9731   -7.6216   -2.4891 H   0  0  0  0  0  0  0  0  0  0  0  0
  1  2  1  0
  2  3  2  0
  3  4  1  0
  3  5  1  0
  5  6  1  0
  5  7  2  0
  7  8  1  0
  8  9  1  0
  9 10  2  0
 10 11  1  0
 10 12  1  0
 12 13  1  0
 12 14  2  0
 14 15  1  0
 14 16  1  0
 16 17  1  0
 17 18  1  0
 18 19  1  0
 18 20  1  0
 18 21  1  0
 21 22  1  0
 21 23  1  0
 21 24  1  0
 24 25  1  0
 24 26  1  0
 26 27  1  0
 26 28  1  0
 26 29  1  0
 29 30  1  0
 29 31  1  0
 16 32  2  0
 32 33  1  0
  8 34  1  0
 34 35  2  0
 34 36  1  0
 36 37  1  0
 37 38  1  0
 37 39  1  0
 37 40  1  0
 36 41  1  0
 41 42  1  0
 42 43  1  0
 42 44  1  0
 41 45  2  0
 45 46  1  0
  7 47  1  0
 47 48  1  0
 47 49  2  0
 49 50  1  0
 49  2  1  0
 45  8  1  0
 32  9  1  0
 29 17  1  0
M  CHG  1  45   1
M  END
>  <score>  (75) 
6.03644

$$$$

     RDKit          3D

 53 55  0  0  0  0  0  0  0  0999 V2000
   16.1047   -8.3860   -1.7284 H   0  0  0  0  0  0  0  0  0  0  0  0
   15.8849   -7.3400   -1.5306 C   0  0  0  0  0  0  0  0  0  0  0  0
   16.8049   -6.5475   -0.8337 C   0  0  0  0  0  0  0  0  0  0  0  0
   17.7468   -6.9731   -0.4959 H   0  0  0  0  0  0  0  0  0  0  0  0
   16.5029   -5.2066   -0.5544 C   0  0  0  0  0  0  0  0  0  0  0  0
   17.2123   -4.5981   -0.0020 H   0  0  0  0  0  0  0  0  0  0  0  0
   15.2823   -4.6416   -0.9559 C   0  0  0  0  0  0  0  0  0  0  0  0
   14.9342   -3.1947   -0.6164 C   0  0  0  0  0  0  0  0  0  0  0  0
   15.4783   -2.2019   -1.6406 C   0  0  0  0  0  0  0  0  0  0  0  0
   15.9583   -2.6053   -2.9020 C   0  0  0  0  0  0  0  0  0  0  0  0
   15.9861   -3.6615   -3.1553 H   0  0  0  0  0  0  0  0  0  0  0  0
   16.3816   -1.6585   -3.8427 C   0  0  0  0  0  0  0  0  0  0  0  0
   16.7690   -1.9855   -4.8033 H   0  0  0  0  0  0  0  0  0  0  0  0
   16.2911   -0.2941   -3.5458 C   0  0  0  0  0  0  0  0  0  0  0  0
   16.6036    0.4521   -4.2645 H   0  0  0  0  0  0  0  0  0  0  0  0
   15.7877    0.1231   -2.3182 C   0  0  0  0  0  0  0  0  0  0  0  0
   15.6173    1.4758   -2.0751 N   0  0  0  0  0  0  0  0  0  0  0  0
   15.7786    2.1374   -2.8197 H   0  0  0  0  0  0  0  0  0  0  0  0
   15.5382    2.0305   -0.8249 C   0  0  0  0  0  0  0  0  0  0  0  0
   15.8383    1.3763    0.1612 O   0  0  0  0  0  0  0  0  0  0  0  0
   15.2462    3.3380   -0.8513 O   0  0  0  0  0  0  0  0  0  0  0  0
   15.4573    4.0442    0.3711 C   0  0  0  0  0  0  0  0  0  0  0  0
   14.4552    3.6378    1.4531 C   0  0  0  0  0  0  0  0  0  0  0  0
   13.9752    4.5107    1.9115 H   0  0  0  0  0  0  0  0  0  0  0  0
   14.9605    3.0748    2.2384 H   0  0  0  0  0  0  0  0  0  0  0  0
   13.6720    3.0259    1.0042 H   0  0  0  0  0  0  0  0  0  0  0  0
   15.2402    5.5035    0.0435 C   0  0  0  0  0  0  0  0  0  0  0  0
   14.1967    5.6661   -0.2411 H   0  0  0  0  0  0  0  0  0  0  0  0
   15.8836    5.7987   -0.7878 H   0  0  0  0  0  0  0  0  0  0  0  0
   15.4773    6.1129    0.9182 H   0  0  0  0  0  0  0  0  0  0  0  0
   16.9036    3.8274    0.8021 C   0  0  0  0  0  0  0  0  0  0  0  0
   17.0769    2.7792    1.0600 H   0  0  0  0  0  0  0  0  0  0  0  0
   17.5589    4.0995   -0.0338 H   0  0  0  0  0  0  0  0  0  0  0  0
   17.1383    4.4249    1.6834 H   0  0  0  0  0  0  0  0  0  0  0  0
   15.4078   -0.8260   -1.3700 C   0  0  0  0  0  0  0  0  0  0  0  0
   15.0273   -0.4868   -0.4119 H   0  0  0  0  0  0  0  0  0  0  0  0
   13.4170   -2.9882   -0.4523 C   0  0  0  0  0  0  0  0  0  0  0  0
   12.5505   -3.1743   -1.3061 O   0  0  0  0  0  0  0  0  0  0  0  0
   13.1280   -2.5809    0.8356 N   0  0  0  0  0  0  0  0  0  0  0  0
   11.8010   -2.2631    1.3654 C   0  0  0  0  0  0  0  0  0  0  0  0
   11.5756   -2.8633    2.2541 H   0  0  0  0  0  0  0  0  0  0  0  0
   11.7343   -1.2043    1.6374 H   0  0  0  0  0  0  0  0  0  0  0  0
   11.0253   -2.4678    0.6178 H   0  0  0  0  0  0  0  0  0  0  0  0
   14.3273   -2.5315    1.5148 C   0  0  0  0  0  0  0  0  0  0  0  0
   14.4823   -2.2044    2.8271 N   0  0  0  0  0  0  0  0  0  0  0  0
   15.4182   -2.2047    3.2316 H   0  0  0  0  0  0  0  0  0  0  0  0
   13.6639   -2.0037    3.3998 H   0  0  0  0  0  0  0  0  0  0  0  0
   15.3334   -2.8600    0.7707 N   0  0  0  0  0  4  0  0  0  0  0  0
   16.2956   -2.9117    1.1086 H   0  0  0  0  0  0  0  0  0  0  0  0
   14.3916   -5.4383   -1.6999 C   0  0  0  0  0  0  0  0  0  0  0  0
   13.4552   -5.0202   -2.0541 H   0  0  0  0  0  0  0  0  0  0  0  0
   14.6852   -6.7798   -1.9808 C   0  0  0  0  0  0  0  0  0  0  0  0
   13.9765   -7.3910   -2.5350 H   0  0  0  0  0  0  0  0  0  0  0  0
  1  2  1  0
  2  3  2  0
  3  4  1  0
  3  5  1  0
  5  6  1  0
  5  7  2  0
  7  8  1  0
  8  9  1  0
  9 10  2  0
 10 11  1  0
 10 12  1  0
 12 13  1  0
 12 14  2  0
 14 15  1  0
 14 16  1  0
 16 17  1  0
 17 18  1  0
 17 19  1  0
 19 20  2  0
 19 21  1  0
 21 22  1  0
 22 23  1  0
 23 24  1  0
 23 25  1  0
 23 26  1  0
 22 27  1  0
 27 28  1  0
 27 29  1  0
 27 30  1  0
 22 31  1  0
 31 32  1  0
 31 33  1  0
 31 34  1  0
 16 35  2  0
 35 36  1  0
  8 37  1  0
 37 38  2  0
 37 39  1  0
 39 40  1  0
 40 41  1  0
 40 42  1  0
 40 43  1  0
 39 44  1  0
 44 45  1  0
 45 46  1  0
 45 47  1  0
 44 48  2  0
 48 49  1  0
  7 50  1  0
 50 51  1  0
 50 52  2  0
 52 53  1  0
 52  2  1  0
 48  8  1  0
 35  9  1  0
M  CHG  1  48   1
M  END
>  <score>  (76) 
6.03451

$$$$

     RDKit          3D

 46 49  0  0  0  0  0  0  0  0999 V2000
   16.0810   -8.4571   -1.6840 H   0  0  0  0  0  0  0  0  0  0  0  0
   15.8182   -7.4123   -1.5517 C   0  0  0  0  0  0  0  0  0  0  0  0
   16.7046   -6.5495   -0.9023 C   0  0  0  0  0  0  0  0  0  0  0  0
   17.6554   -6.9245   -0.5295 H   0  0  0  0  0  0  0  0  0  0  0  0
   16.3554   -5.2106   -0.7076 C   0  0  0  0  0  0  0  0  0  0  0  0
   17.0491   -4.5497   -0.1932 H   0  0  0  0  0  0  0  0  0  0  0  0
   15.1129   -4.7113   -1.1339 C   0  0  0  0  0  0  0  0  0  0  0  0
   14.7593   -3.2559   -0.8136 C   0  0  0  0  0  0  0  0  0  0  0  0
   15.3439   -2.2468   -1.7881 C   0  0  0  0  0  0  0  0  0  0  0  0
   15.9188   -2.6386   -3.0056 C   0  0  0  0  0  0  0  0  0  0  0  0
   15.9668   -3.6951   -3.2530 H   0  0  0  0  0  0  0  0  0  0  0  0
   16.4300   -1.6787   -3.8843 C   0  0  0  0  0  0  0  0  0  0  0  0
   16.8866   -1.9915   -4.8165 H   0  0  0  0  0  0  0  0  0  0  0  0
   16.3629   -0.3197   -3.5612 C   0  0  0  0  0  0  0  0  0  0  0  0
   16.7726    0.4170   -4.2450 H   0  0  0  0  0  0  0  0  0  0  0  0
   15.7771    0.1006   -2.3585 C   0  0  0  0  0  0  0  0  0  0  0  0
   15.6708    1.5838   -2.0579 C   0  0  2  0  0  0  0  0  0  0  0  0
   16.2499    2.1254   -2.8136 H   0  0  0  0  0  0  0  0  0  0  0  0
   16.1575    1.9683   -0.7279 N   0  0  0  0  0  0  0  0  0  0  0  0
   15.1862    2.6178   -0.1931 C   0  0  0  0  0  0  0  0  0  0  0  0
   15.4035    3.0804    1.0426 N   0  0  0  0  0  0  0  0  0  0  0  0
   16.2088    2.6132    1.4354 H   0  0  0  0  0  0  0  0  0  0  0  0
   14.5545    3.1117    1.5856 H   0  0  0  0  0  0  0  0  0  0  0  0
   14.0111    2.7383   -0.8421 O   0  0  0  0  0  0  0  0  0  0  0  0
   14.2166    2.0655   -2.0853 C   0  0  0  0  0  0  0  0  0  0  0  0
   14.0656    2.7524   -2.9235 H   0  0  0  0  0  0  0  0  0  0  0  0
   13.5174    1.2281   -2.1939 H   0  0  0  0  0  0  0  0  0  0  0  0
   15.2748   -0.8750   -1.4842 C   0  0  0  0  0  0  0  0  0  0  0  0
   14.8271   -0.5613   -0.5446 H   0  0  0  0  0  0  0  0  0  0  0  0
   13.2469   -2.9995   -0.6594 C   0  0  0  0  0  0  0  0  0  0  0  0
   12.3533   -3.2021   -1.4808 O   0  0  0  0  0  0  0  0  0  0  0  0
   12.9954   -2.5232    0.6121 N   0  0  0  0  0  0  0  0  0  0  0  0
   11.6871   -2.2236    1.1795 C   0  0  0  0  0  0  0  0  0  0  0  0
   11.5244   -2.8461    2.0680 H   0  0  0  0  0  0  0  0  0  0  0  0
   10.9068   -2.4533    0.4416 H   0  0  0  0  0  0  0  0  0  0  0  0
   11.6123   -1.1621    1.4635 H   0  0  0  0  0  0  0  0  0  0  0  0
   14.1760   -2.6052    1.3147 C   0  0  0  0  0  0  0  0  0  0  0  0
   14.3395   -2.4102    2.6536 N   0  0  0  0  0  0  0  0  0  0  0  0
   15.2968   -2.3836    3.0068 H   0  0  0  0  0  0  0  0  0  0  0  0
   13.5812   -1.9848    3.1845 H   0  0  0  0  0  0  0  0  0  0  0  0
   15.1757   -2.9260    0.5687 N   0  0  0  0  0  4  0  0  0  0  0  0
   16.1140   -3.0694    0.9283 H   0  0  0  0  0  0  0  0  0  0  0  0
   14.2412   -5.5858   -1.8257 C   0  0  0  0  0  0  0  0  0  0  0  0
   13.2810   -5.2351   -2.1960 H   0  0  0  0  0  0  0  0  0  0  0  0
   14.5952   -6.9305   -2.0314 C   0  0  0  0  0  0  0  0  0  0  0  0
   13.9202   -7.6127   -2.5441 H   0  0  0  0  0  0  0  0  0  0  0  0
  1  2  1  0
  2  3  2  0
  3  4  1  0
  3  5  1  0
  5  6  1  0
  5  7  2  0
  7  8  1  0
  8  9  1  0
  9 10  2  0
 10 11  1  0
 10 12  1  0
 12 13  1  0
 12 14  2  0
 14 15  1  0
 14 16  1  0
 16 17  1  0
 17 18  1  6
 17 19  1  0
 19 20  2  0
 20 21  1  0
 21 22  1  0
 21 23  1  0
 20 24  1  0
 24 25  1  0
 25 26  1  0
 25 27  1  0
 16 28  2  0
 28 29  1  0
  8 30  1  0
 30 31  2  0
 30 32  1  0
 32 33  1  0
 33 34  1  0
 33 35  1  0
 33 36  1  0
 32 37  1  0
 37 38  1  0
 38 39  1  0
 38 40  1  0
 37 41  2  0
 41 42  1  0
  7 43  1  0
 43 44  1  0
 43 45  2  0
 45 46  1  0
 45  2  1  0
 41  8  1  0
 28  9  1  0
 25 17  1  0
M  CHG  1  41   1
M  END
>  <score>  (77) 
6.0306

$$$$

     RDKit          3D

 52 55  0  0  0  0  0  0  0  0999 V2000
   16.1115   -8.4400   -1.6849 H   0  0  0  0  0  0  0  0  0  0  0  0
   15.8677   -7.3966   -1.5145 C   0  0  0  0  0  0  0  0  0  0  0  0
   16.7690   -6.5763   -0.8316 C   0  0  0  0  0  0  0  0  0  0  0  0
   17.7089   -6.9754   -0.4638 H   0  0  0  0  0  0  0  0  0  0  0  0
   16.4588   -5.2315   -0.6070 C   0  0  0  0  0  0  0  0  0  0  0  0
   17.1509   -4.5995   -0.0571 H   0  0  0  0  0  0  0  0  0  0  0  0
   15.2421   -4.6885   -1.0534 C   0  0  0  0  0  0  0  0  0  0  0  0
   14.8779   -3.2398   -0.7393 C   0  0  0  0  0  0  0  0  0  0  0  0
   15.3801   -2.2377   -1.7770 C   0  0  0  0  0  0  0  0  0  0  0  0
   15.9269   -2.6405   -3.0074 C   0  0  0  0  0  0  0  0  0  0  0  0
   15.9926   -3.6974   -3.2458 H   0  0  0  0  0  0  0  0  0  0  0  0
   16.4117   -1.6949   -3.9198 C   0  0  0  0  0  0  0  0  0  0  0  0
   16.8595   -2.0158   -4.8543 H   0  0  0  0  0  0  0  0  0  0  0  0
   16.3375   -0.3301   -3.6243 C   0  0  0  0  0  0  0  0  0  0  0  0
   16.7183    0.4042   -4.3292 H   0  0  0  0  0  0  0  0  0  0  0  0
   15.7648    0.1038   -2.4194 C   0  0  0  0  0  0  0  0  0  0  0  0
   15.6847    1.5876   -2.0946 C   0  0  0  0  0  0  0  0  0  0  0  0
   16.0552    2.1568   -2.9535 H   0  0  0  0  0  0  0  0  0  0  0  0
   14.2365    2.0298   -1.8420 C   0  0  0  0  0  0  0  0  0  0  0  0
   13.8755    1.5497   -0.9267 H   0  0  0  0  0  0  0  0  0  0  0  0
   13.5908    1.7054   -2.6631 H   0  0  0  0  0  0  0  0  0  0  0  0
   14.1408    3.5596   -1.6881 C   0  0  0  0  0  0  0  0  0  0  0  0
   13.2788    3.7929   -1.0550 H   0  0  0  0  0  0  0  0  0  0  0  0
   13.9643    4.0146   -2.6682 H   0  0  0  0  0  0  0  0  0  0  0  0
   15.4078    4.1842   -1.0793 C   0  0  0  0  0  0  0  0  0  0  0  0
   15.1478    5.1075   -0.5529 H   0  0  0  0  0  0  0  0  0  0  0  0
   16.1069    4.4449   -1.8798 H   0  0  0  0  0  0  0  0  0  0  0  0
   16.0955    3.2072   -0.1253 C   0  0  0  0  0  0  0  0  0  0  0  0
   15.3874    2.9235    0.6602 H   0  0  0  0  0  0  0  0  0  0  0  0
   16.9503    3.6915    0.3591 H   0  0  0  0  0  0  0  0  0  0  0  0
   16.5644    1.9456   -0.8748 C   0  0  0  0  0  0  0  0  0  0  0  0
   17.5884    2.1046   -1.2258 H   0  0  0  0  0  0  0  0  0  0  0  0
   16.5758    1.1117   -0.1660 H   0  0  0  0  0  0  0  0  0  0  0  0
   15.2859   -0.8577   -1.5130 C   0  0  0  0  0  0  0  0  0  0  0  0
   14.8476   -0.5222   -0.5765 H   0  0  0  0  0  0  0  0  0  0  0  0
   13.3662   -3.0686   -0.4981 C   0  0  0  0  0  0  0  0  0  0  0  0
   12.4512   -3.2727   -1.2970 O   0  0  0  0  0  0  0  0  0  0  0  0
   13.1621   -2.6534    0.8025 N   0  0  0  0  0  0  0  0  0  0  0  0
   11.8886   -2.2740    1.3970 C   0  0  0  0  0  0  0  0  0  0  0  0
   11.0612   -2.8027    0.9070 H   0  0  0  0  0  0  0  0  0  0  0  0
   11.7373   -1.1948    1.2895 H   0  0  0  0  0  0  0  0  0  0  0  0
   11.8801   -2.5239    2.4648 H   0  0  0  0  0  0  0  0  0  0  0  0
   14.3980   -2.5229    1.3979 C   0  0  0  0  0  0  0  0  0  0  0  0
   14.5779   -2.0957    2.6816 N   0  0  0  0  0  0  0  0  0  0  0  0
   13.7894   -2.2213    3.3157 H   0  0  0  0  0  0  0  0  0  0  0  0
   15.5155   -2.1724    3.0690 H   0  0  0  0  0  0  0  0  0  0  0  0
   15.3603   -2.8665    0.6089 N   0  0  0  0  0  4  0  0  0  0  0  0
   16.3513   -2.7685    0.8462 H   0  0  0  0  0  0  0  0  0  0  0  0
   14.3520   -5.5195   -1.7593 C   0  0  0  0  0  0  0  0  0  0  0  0
   13.4027   -5.1299   -2.1189 H   0  0  0  0  0  0  0  0  0  0  0  0
   14.6626   -6.8664   -1.9822 C   0  0  0  0  0  0  0  0  0  0  0  0
   13.9708   -7.5074   -2.5179 H   0  0  0  0  0  0  0  0  0  0  0  0
  1  2  1  0
  2  3  2  0
  3  4  1  0
  3  5  1  0
  5  6  1  0
  5  7  2  0
  7  8  1  0
  8  9  1  0
  9 10  2  0
 10 11  1  0
 10 12  1  0
 12 13  1  0
 12 14  2  0
 14 15  1  0
 14 16  1  0
 16 17  1  0
 17 18  1  0
 17 19  1  0
 19 20  1  0
 19 21  1  0
 19 22  1  0
 22 23  1  0
 22 24  1  0
 22 25  1  0
 25 26  1  0
 25 27  1  0
 25 28  1  0
 28 29  1  0
 28 30  1  0
 28 31  1  0
 31 32  1  0
 31 33  1  0
 16 34  2  0
 34 35  1  0
  8 36  1  0
 36 37  2  0
 36 38  1  0
 38 39  1  0
 39 40  1  0
 39 41  1  0
 39 42  1  0
 38 43  1  0
 43 44  1  0
 44 45  1  0
 44 46  1  0
 43 47  2  0
 47 48  1  0
  7 49  1  0
 49 50  1  0
 49 51  2  0
 51 52  1  0
 51  2  1  0
 47  8  1  0
 34  9  1  0
 31 17  1  0
M  CHG  1  47   1
M  END
>  <score>  (78) 
6.01864

$$$$

     RDKit          3D

 50 52  0  0  0  0  0  0  0  0999 V2000
   16.0958   -8.4485   -1.6237 H   0  0  0  0  0  0  0  0  0  0  0  0
   15.8578   -7.3980   -1.4887 C   0  0  0  0  0  0  0  0  0  0  0  0
   16.7455   -6.5616   -0.8041 C   0  0  0  0  0  0  0  0  0  0  0  0
   17.6779   -6.9570   -0.4096 H   0  0  0  0  0  0  0  0  0  0  0  0
   16.4200   -5.2164   -0.6027 C   0  0  0  0  0  0  0  0  0  0  0  0
   17.0934   -4.5663   -0.0517 H   0  0  0  0  0  0  0  0  0  0  0  0
   15.2020   -4.6914   -1.0598 C   0  0  0  0  0  0  0  0  0  0  0  0
   14.8343   -3.2448   -0.7570 C   0  0  0  0  0  0  0  0  0  0  0  0
   15.3914   -2.2433   -1.7639 C   0  0  0  0  0  0  0  0  0  0  0  0
   15.9423   -2.6493   -2.9920 C   0  0  0  0  0  0  0  0  0  0  0  0
   15.9990   -3.7103   -3.2232 H   0  0  0  0  0  0  0  0  0  0  0  0
   16.4152   -1.7006   -3.9106 C   0  0  0  0  0  0  0  0  0  0  0  0
   16.8442   -2.0182   -4.8568 H   0  0  0  0  0  0  0  0  0  0  0  0
   16.3341   -0.3345   -3.6127 C   0  0  0  0  0  0  0  0  0  0  0  0
   16.7050    0.4023   -4.3191 H   0  0  0  0  0  0  0  0  0  0  0  0
   15.7660    0.0914   -2.4064 C   0  0  0  0  0  0  0  0  0  0  0  0
   15.6375    1.5597   -2.0902 C   0  0  0  0  0  0  0  0  0  0  0  0
   15.7679    1.7202   -1.0158 H   0  0  0  0  0  0  0  0  0  0  0  0
   16.4045    2.1292   -2.6229 H   0  0  0  0  0  0  0  0  0  0  0  0
   14.2624    2.0707   -2.4994 C   0  0  0  0  0  0  0  0  0  0  0  0
   13.4861    1.4577   -2.0343 H   0  0  0  0  0  0  0  0  0  0  0  0
   14.1510    1.9869   -3.5866 H   0  0  0  0  0  0  0  0  0  0  0  0
   14.0842    3.4792   -2.1044 N   0  0  0  0  0  0  0  0  0  0  0  0
   14.8048    4.4737   -2.9128 C   0  0  0  0  0  0  0  0  0  0  0  0
   15.8897    4.3885   -2.7840 H   0  0  0  0  0  0  0  0  0  0  0  0
   14.5721    4.3468   -3.9715 H   0  0  0  0  0  0  0  0  0  0  0  0
   14.4945    5.4778   -2.6252 H   0  0  0  0  0  0  0  0  0  0  0  0
   13.9941    3.8183   -0.6704 C   0  0  0  0  0  0  0  0  0  0  0  0
   14.9720    3.7959   -0.1840 H   0  0  0  0  0  0  0  0  0  0  0  0
   13.5842    4.8247   -0.5613 H   0  0  0  0  0  0  0  0  0  0  0  0
   13.3335    3.1280   -0.1483 H   0  0  0  0  0  0  0  0  0  0  0  0
   15.3003   -0.8653   -1.4962 C   0  0  0  0  0  0  0  0  0  0  0  0
   14.8621   -0.5325   -0.5595 H   0  0  0  0  0  0  0  0  0  0  0  0
   13.3118   -3.0485   -0.5881 C   0  0  0  0  0  0  0  0  0  0  0  0
   12.4486   -3.1598   -1.4565 O   0  0  0  0  0  0  0  0  0  0  0  0
   13.0378   -2.6868    0.7174 N   0  0  0  0  0  0  0  0  0  0  0  0
   11.7346   -2.3162    1.2771 C   0  0  0  0  0  0  0  0  0  0  0  0
   11.7236   -1.2583    1.5586 H   0  0  0  0  0  0  0  0  0  0  0  0
   10.9303   -2.4784    0.5526 H   0  0  0  0  0  0  0  0  0  0  0  0
   11.5056   -2.9129    2.1669 H   0  0  0  0  0  0  0  0  0  0  0  0
   14.2469   -2.6168    1.3733 C   0  0  0  0  0  0  0  0  0  0  0  0
   14.4212   -2.2765    2.6795 N   0  0  0  0  0  0  0  0  0  0  0  0
   13.6075   -2.1223    3.2696 H   0  0  0  0  0  0  0  0  0  0  0  0
   15.3563   -2.3203    3.0809 H   0  0  0  0  0  0  0  0  0  0  0  0
   15.2526   -2.9120    0.6201 N   0  0  0  0  0  4  0  0  0  0  0  0
   16.2171   -2.9833    0.9550 H   0  0  0  0  0  0  0  0  0  0  0  0
   14.3232   -5.5393   -1.7574 C   0  0  0  0  0  0  0  0  0  0  0  0
   13.3693   -5.1548   -2.1067 H   0  0  0  0  0  0  0  0  0  0  0  0
   14.6493   -6.8855   -1.9734 C   0  0  0  0  0  0  0  0  0  0  0  0
   13.9544   -7.5437   -2.4878 H   0  0  0  0  0  0  0  0  0  0  0  0
  1  2  1  0
  2  3  2  0
  3  4  1  0
  3  5  1  0
  5  6  1  0
  5  7  2  0
  7  8  1  0
  8  9  1  0
  9 10  2  0
 10 11  1  0
 10 12  1  0
 12 13  1  0
 12 14  2  0
 14 15  1  0
 14 16  1  0
 16 17  1  0
 17 18  1  0
 17 19  1  0
 17 20  1  0
 20 21  1  0
 20 22  1  0
 20 23  1  0
 23 24  1  0
 24 25  1  0
 24 26  1  0
 24 27  1  0
 23 28  1  0
 28 29  1  0
 28 30  1  0
 28 31  1  0
 16 32  2  0
 32 33  1  0
  8 34  1  0
 34 35  2  0
 34 36  1  0
 36 37  1  0
 37 38  1  0
 37 39  1  0
 37 40  1  0
 36 41  1  0
 41 42  1  0
 42 43  1  0
 42 44  1  0
 41 45  2  0
 45 46  1  0
  7 47  1  0
 47 48  1  0
 47 49  2  0
 49 50  1  0
 49  2  1  0
 45  8  1  0
 32  9  1  0
M  CHG  1  45   1
M  END
>  <score>  (79) 
6.01848

$$$$

     RDKit          3D

 56 59  0  0  0  0  0  0  0  0999 V2000
   16.1208   -8.4102   -1.7171 H   0  0  0  0  0  0  0  0  0  0  0  0
   15.8793   -7.3705   -1.5211 C   0  0  0  0  0  0  0  0  0  0  0  0
   16.7781   -6.5593   -0.8185 C   0  0  0  0  0  0  0  0  0  0  0  0
   17.7295   -6.9615   -0.4789 H   0  0  0  0  0  0  0  0  0  0  0  0
   16.4520   -5.2263   -0.5489 C   0  0  0  0  0  0  0  0  0  0  0  0
   17.1528   -4.5962   -0.0087 H   0  0  0  0  0  0  0  0  0  0  0  0
   15.2238   -4.6909   -0.9682 C   0  0  0  0  0  0  0  0  0  0  0  0
   14.8712   -3.2416   -0.6937 C   0  0  0  0  0  0  0  0  0  0  0  0
   15.4160   -2.3383   -1.7931 C   0  0  0  0  0  0  0  0  0  0  0  0
   15.9656   -2.8341   -2.9912 C   0  0  0  0  0  0  0  0  0  0  0  0
   15.9971   -3.9051   -3.1694 H   0  0  0  0  0  0  0  0  0  0  0  0
   16.4874   -1.9587   -3.9503 C   0  0  0  0  0  0  0  0  0  0  0  0
   16.9087   -2.3317   -4.8676 H   0  0  0  0  0  0  0  0  0  0  0  0
   16.4818   -0.5849   -3.7264 C   0  0  0  0  0  0  0  0  0  0  0  0
   16.9080    0.1083   -4.4419 H   0  0  0  0  0  0  0  0  0  0  0  0
   15.9072   -0.0872   -2.5699 C   0  0  0  0  0  0  0  0  0  0  0  0
   15.9348    1.2735   -2.3281 N   0  0  0  0  0  0  0  0  0  0  0  0
   16.7284    1.8076   -2.6650 H   0  0  0  0  0  0  0  0  0  0  0  0
   15.0622    1.9002   -1.4670 C   0  0  0  0  0  0  0  0  0  0  0  0
   14.0113    1.3559   -1.1369 O   0  0  0  0  0  0  0  0  0  0  0  0
   15.4199    3.3077   -0.9778 C   0  0  0  0  0  0  0  0  0  0  0  0
   16.1623    3.7274   -1.6635 H   0  0  0  0  0  0  0  0  0  0  0  0
   16.0407    3.2571    0.4453 C   0  0  0  0  0  0  0  0  0  0  0  0
   17.1303    3.1776    0.3790 H   0  0  0  0  0  0  0  0  0  0  0  0
   15.6893    2.3684    0.9843 H   0  0  0  0  0  0  0  0  0  0  0  0
   15.6478    4.5255    1.2172 C   0  0  0  0  0  0  0  0  0  0  0  0
   16.1659    4.5817    2.1802 H   0  0  0  0  0  0  0  0  0  0  0  0
   15.9537    5.3937    0.6184 H   0  0  0  0  0  0  0  0  0  0  0  0
   14.1206    4.5849    1.4315 C   0  0  0  0  0  0  0  0  0  0  0  0
   13.8445    4.0536    2.3443 H   0  0  0  0  0  0  0  0  0  0  0  0
   13.8327    5.6295    1.5707 H   0  0  0  0  0  0  0  0  0  0  0  0
   13.3468    3.9917    0.2395 C   0  0  0  0  0  0  0  0  0  0  0  0
   13.1871    2.9145    0.3823 H   0  0  0  0  0  0  0  0  0  0  0  0
   12.3607    4.4564    0.1576 H   0  0  0  0  0  0  0  0  0  0  0  0
   14.1761    4.2265   -1.0251 C   0  0  0  0  0  0  0  0  0  0  0  0
   14.4914    5.2787   -1.0575 H   0  0  0  0  0  0  0  0  0  0  0  0
   13.5784    4.0280   -1.9210 H   0  0  0  0  0  0  0  0  0  0  0  0
   15.3564   -0.9515   -1.6249 C   0  0  0  0  0  0  0  0  0  0  0  0
   14.9217   -0.5316   -0.7235 H   0  0  0  0  0  0  0  0  0  0  0  0
   13.3580   -3.0248   -0.4994 C   0  0  0  0  0  0  0  0  0  0  0  0
   12.4682   -3.2501   -1.3174 O   0  0  0  0  0  0  0  0  0  0  0  0
   13.1023   -2.5835    0.7840 N   0  0  0  0  0  0  0  0  0  0  0  0
   11.7901   -2.2594    1.3506 C   0  0  0  0  0  0  0  0  0  0  0  0
   10.9933   -2.4594    0.6239 H   0  0  0  0  0  0  0  0  0  0  0  0
   11.7363   -1.2000    1.6256 H   0  0  0  0  0  0  0  0  0  0  0  0
   11.5893   -2.8610    2.2446 H   0  0  0  0  0  0  0  0  0  0  0  0
   14.3162   -2.5127    1.4320 C   0  0  0  0  0  0  0  0  0  0  0  0
   14.4913   -2.1654    2.7389 N   0  0  0  0  0  0  0  0  0  0  0  0
   15.4217   -2.2381    3.1476 H   0  0  0  0  0  0  0  0  0  0  0  0
   13.6740   -2.0629    3.3403 H   0  0  0  0  0  0  0  0  0  0  0  0
   15.3078   -2.8389    0.6649 N   0  0  0  0  0  4  0  0  0  0  0  0
   16.2714   -2.9182    0.9968 H   0  0  0  0  0  0  0  0  0  0  0  0
   14.3484   -5.5032   -1.7052 C   0  0  0  0  0  0  0  0  0  0  0  0
   13.4139   -5.0896   -2.0740 H   0  0  0  0  0  0  0  0  0  0  0  0
   14.6681   -6.8365   -1.9770 C   0  0  0  0  0  0  0  0  0  0  0  0
   13.9749   -7.4557   -2.5394 H   0  0  0  0  0  0  0  0  0  0  0  0
  1  2  1  0
  2  3  2  0
  3  4  1  0
  3  5  1  0
  5  6  1  0
  5  7  2  0
  7  8  1  0
  8  9  1  0
  9 10  2  0
 10 11  1  0
 10 12  1  0
 12 13  1  0
 12 14  2  0
 14 15  1  0
 14 16  1  0
 16 17  1  0
 17 18  1  0
 17 19  1  0
 19 20  2  0
 19 21  1  0
 21 22  1  0
 21 23  1  0
 23 24  1  0
 23 25  1  0
 23 26  1  0
 26 27  1  0
 26 28  1  0
 26 29  1  0
 29 30  1  0
 29 31  1  0
 29 32  1  0
 32 33  1  0
 32 34  1  0
 32 35  1  0
 35 36  1  0
 35 37  1  0
 16 38  2  0
 38 39  1  0
  8 40  1  0
 40 41  2  0
 40 42  1  0
 42 43  1  0
 43 44  1  0
 43 45  1  0
 43 46  1  0
 42 47  1  0
 47 48  1  0
 48 49  1  0
 48 50  1  0
 47 51  2  0
 51 52  1  0
  7 53  1  0
 53 54  1  0
 53 55  2  0
 55 56  1  0
 55  2  1  0
 51  8  1  0
 38  9  1  0
 35 21  1  0
M  CHG  1  51   1
M  END
>  <score>  (80) 
6.01596

$$$$

     RDKit          3D

 52 55  0  0  0  0  0  0  0  0999 V2000
   16.0798   -8.4152   -1.6647 H   0  0  0  0  0  0  0  0  0  0  0  0
   15.8460   -7.3641   -1.5166 C   0  0  0  0  0  0  0  0  0  0  0  0
   16.7536   -6.5404   -0.8404 C   0  0  0  0  0  0  0  0  0  0  0  0
   17.6872   -6.9383   -0.4518 H   0  0  0  0  0  0  0  0  0  0  0  0
   16.4539   -5.1907   -0.6322 C   0  0  0  0  0  0  0  0  0  0  0  0
   17.1537   -4.5549   -0.0964 H   0  0  0  0  0  0  0  0  0  0  0  0
   15.2386   -4.6409   -1.0664 C   0  0  0  0  0  0  0  0  0  0  0  0
   14.9059   -3.1859   -0.7356 C   0  0  0  0  0  0  0  0  0  0  0  0
   15.4306   -2.1986   -1.7764 C   0  0  0  0  0  0  0  0  0  0  0  0
   15.9893   -2.6403   -2.9885 C   0  0  0  0  0  0  0  0  0  0  0  0
   16.0626   -3.7017   -3.2039 H   0  0  0  0  0  0  0  0  0  0  0  0
   16.4494   -1.7250   -3.9386 C   0  0  0  0  0  0  0  0  0  0  0  0
   16.8810   -2.0617   -4.8726 H   0  0  0  0  0  0  0  0  0  0  0  0
   16.3501   -0.3550   -3.7021 C   0  0  0  0  0  0  0  0  0  0  0  0
   16.7056    0.3567   -4.4410 H   0  0  0  0  0  0  0  0  0  0  0  0
   15.7737    0.1186   -2.5189 C   0  0  0  0  0  0  0  0  0  0  0  0
   15.6203    1.6133   -2.3081 C   0  0  1  0  0  0  0  0  0  0  0  0
   16.1891    2.1438   -3.0792 H   0  0  0  0  0  0  0  0  0  0  0  0
   14.1642    2.0134   -2.4363 C   0  0  0  0  0  0  0  0  0  0  0  0
   13.2699    1.7547   -1.3934 C   0  0  0  0  0  0  0  0  0  0  0  0
   13.6389    1.2321   -0.5259 H   0  0  0  0  0  0  0  0  0  0  0  0
   11.9370    2.1594   -1.4638 C   0  0  0  0  0  0  0  0  0  0  0  0
   11.2737    1.9634   -0.6291 H   0  0  0  0  0  0  0  0  0  0  0  0
   11.4723    2.8126   -2.6064 C   0  0  0  0  0  0  0  0  0  0  0  0
   10.4373    3.1323   -2.6626 H   0  0  0  0  0  0  0  0  0  0  0  0
   12.3432    3.0495   -3.6757 C   0  0  0  0  0  0  0  0  0  0  0  0
   11.9772    3.5448   -4.5698 H   0  0  0  0  0  0  0  0  0  0  0  0
   13.6856    2.6547   -3.5899 C   0  0  0  0  0  0  0  0  0  0  0  0
   14.3561    2.8446   -4.4227 H   0  0  0  0  0  0  0  0  0  0  0  0
   16.1811    2.0418   -0.9428 C   0  0  0  0  0  0  0  0  0  0  0  0
   15.7579    1.4241   -0.1425 H   0  0  0  0  0  0  0  0  0  0  0  0
   15.9367    3.0909   -0.7403 H   0  0  0  0  0  0  0  0  0  0  0  0
   17.2693    1.9356   -0.9342 H   0  0  0  0  0  0  0  0  0  0  0  0
   15.3174   -0.8105   -1.5643 C   0  0  0  0  0  0  0  0  0  0  0  0
   14.8632   -0.4518   -0.6440 H   0  0  0  0  0  0  0  0  0  0  0  0
   13.3976   -2.9679   -0.5053 C   0  0  0  0  0  0  0  0  0  0  0  0
   12.4860   -3.1195   -1.3182 O   0  0  0  0  0  0  0  0  0  0  0  0
   13.1875   -2.6201    0.8114 N   0  0  0  0  0  0  0  0  0  0  0  0
   11.9117   -2.2982    1.4374 C   0  0  0  0  0  0  0  0  0  0  0  0
   11.9233   -2.5932    2.4941 H   0  0  0  0  0  0  0  0  0  0  0  0
   11.0984   -2.8417    0.9347 H   0  0  0  0  0  0  0  0  0  0  0  0
   11.7295   -1.2156    1.3735 H   0  0  0  0  0  0  0  0  0  0  0  0
   14.4084   -2.6282    1.4386 C   0  0  0  0  0  0  0  0  0  0  0  0
   14.5617   -2.4682    2.7832 N   0  0  0  0  0  0  0  0  0  0  0  0
   15.5217   -2.3834    3.1175 H   0  0  0  0  0  0  0  0  0  0  0  0
   13.8232   -1.9734    3.2801 H   0  0  0  0  0  0  0  0  0  0  0  0
   15.3907   -2.8709    0.6320 N   0  0  0  0  0  4  0  0  0  0  0  0
   16.3045   -3.1712    0.9830 H   0  0  0  0  0  0  0  0  0  0  0  0
   14.3424   -5.4729   -1.7696 C   0  0  0  0  0  0  0  0  0  0  0  0
   13.3944   -5.0803   -2.1260 H   0  0  0  0  0  0  0  0  0  0  0  0
   14.6417   -6.8273   -1.9897 C   0  0  0  0  0  0  0  0  0  0  0  0
   13.9336   -7.4697   -2.5090 H   0  0  0  0  0  0  0  0  0  0  0  0
  1  2  1  0
  2  3  2  0
  3  4  1  0
  3  5  1  0
  5  6  1  0
  5  7  2  0
  7  8  1  0
  8  9  1  0
  9 10  2  0
 10 11  1  0
 10 12  1  0
 12 13  1  0
 12 14  2  0
 14 15  1  0
 14 16  1  0
 16 17  1  0
 17 18  1  6
 17 19  1  0
 19 20  2  0
 20 21  1  0
 20 22  1  0
 22 23  1  0
 22 24  2  0
 24 25  1  0
 24 26  1  0
 26 27  1  0
 26 28  2  0
 28 29  1  0
 17 30  1  0
 30 31  1  0
 30 32  1  0
 30 33  1  0
 16 34  2  0
 34 35  1  0
  8 36  1  0
 36 37  2  0
 36 38  1  0
 38 39  1  0
 39 40  1  0
 39 41  1  0
 39 42  1  0
 38 43  1  0
 43 44  1  0
 44 45  1  0
 44 46  1  0
 43 47  2  0
 47 48  1  0
  7 49  1  0
 49 50  1  0
 49 51  2  0
 51 52  1  0
 51  2  1  0
 47  8  1  0
 34  9  1  0
 28 19  1  0
M  CHG  1  47   1
M  END
>  <score>  (81) 
6.0123

$$$$

     RDKit          3D

 43 46  0  0  0  0  0  0  0  0999 V2000
   16.1281   -8.4914   -1.6107 H   0  0  0  0  0  0  0  0  0  0  0  0
   15.8547   -7.4484   -1.4683 C   0  0  0  0  0  0  0  0  0  0  0  0
   16.7258   -6.5890   -0.7966 C   0  0  0  0  0  0  0  0  0  0  0  0
   17.6771   -6.9547   -0.4209 H   0  0  0  0  0  0  0  0  0  0  0  0
   16.3816   -5.2464   -0.6062 C   0  0  0  0  0  0  0  0  0  0  0  0
   17.0711   -4.5994   -0.0728 H   0  0  0  0  0  0  0  0  0  0  0  0
   15.1612   -4.7236   -1.0708 C   0  0  0  0  0  0  0  0  0  0  0  0
   14.8055   -3.2518   -0.7873 C   0  0  0  0  0  0  0  0  0  0  0  0
   15.3877   -2.2454   -1.7845 C   0  0  0  0  0  0  0  0  0  0  0  0
   15.9439   -2.6450   -3.0127 C   0  0  0  0  0  0  0  0  0  0  0  0
   16.0082   -3.6965   -3.2732 H   0  0  0  0  0  0  0  0  0  0  0  0
   16.4240   -1.6983   -3.9231 C   0  0  0  0  0  0  0  0  0  0  0  0
   16.8602   -2.0093   -4.8652 H   0  0  0  0  0  0  0  0  0  0  0  0
   16.3468   -0.3381   -3.6329 C   0  0  0  0  0  0  0  0  0  0  0  0
   16.7078    0.3906   -4.3549 H   0  0  0  0  0  0  0  0  0  0  0  0
   15.8001    0.1048   -2.4219 C   0  0  0  0  0  0  0  0  0  0  0  0
   15.7437    1.5601   -2.1594 C   0  0  0  0  0  0  0  0  0  0  0  0
   16.1584    2.4910   -2.9967 N   0  0  0  0  0  0  0  0  0  0  0  0
   15.9271    3.6863   -2.3731 N   0  0  0  0  0  0  0  0  0  0  0  0
   16.1528    4.5931   -2.7825 H   0  0  0  0  0  0  0  0  0  0  0  0
   15.3543    3.5475   -1.1223 C   0  0  0  0  0  0  0  0  0  0  0  0
   15.0698    4.3336   -0.4177 H   0  0  0  0  0  0  0  0  0  0  0  0
   15.2294    2.2029   -0.9649 C   0  0  0  0  0  0  0  0  0  0  0  0
   14.8302    1.6918   -0.1102 H   0  0  0  0  0  0  0  0  0  0  0  0
   15.3230   -0.8612   -1.5070 C   0  0  0  0  0  0  0  0  0  0  0  0
   14.8961   -0.5390   -0.5606 H   0  0  0  0  0  0  0  0  0  0  0  0
   13.2909   -3.0170   -0.6118 C   0  0  0  0  0  0  0  0  0  0  0  0
   12.4206   -3.0779   -1.4805 O   0  0  0  0  0  0  0  0  0  0  0  0
   13.0194   -2.6677    0.6977 N   0  0  0  0  0  0  0  0  0  0  0  0
   11.7184   -2.3125    1.2624 C   0  0  0  0  0  0  0  0  0  0  0  0
   11.5013   -2.9202    2.1458 H   0  0  0  0  0  0  0  0  0  0  0  0
   11.6926   -1.2590    1.5580 H   0  0  0  0  0  0  0  0  0  0  0  0
   10.9158   -2.4775    0.5372 H   0  0  0  0  0  0  0  0  0  0  0  0
   14.2233   -2.6315    1.3659 C   0  0  0  0  0  0  0  0  0  0  0  0
   14.3894   -2.3402    2.6914 N   0  0  0  0  0  0  0  0  0  0  0  0
   15.3243   -2.3592    3.0981 H   0  0  0  0  0  0  0  0  0  0  0  0
   13.5790   -2.1267    3.2689 H   0  0  0  0  0  0  0  0  0  0  0  0
   15.2176   -2.9079    0.5911 N   0  0  0  0  0  4  0  0  0  0  0  0
   16.1922   -2.8919    0.8941 H   0  0  0  0  0  0  0  0  0  0  0  0
   14.2982   -5.6010   -1.7691 C   0  0  0  0  0  0  0  0  0  0  0  0
   13.3521   -5.2520   -2.1738 H   0  0  0  0  0  0  0  0  0  0  0  0
   14.6428   -6.9521   -1.9595 C   0  0  0  0  0  0  0  0  0  0  0  0
   13.9732   -7.6246   -2.4893 H   0  0  0  0  0  0  0  0  0  0  0  0
  1  2  1  0
  2  3  2  0
  3  4  1  0
  3  5  1  0
  5  6  1  0
  5  7  2  0
  7  8  1  0
  8  9  1  0
  9 10  2  0
 10 11  1  0
 10 12  1  0
 12 13  1  0
 12 14  2  0
 14 15  1  0
 14 16  1  0
 16 17  1  0
 17 18  2  0
 18 19  1  0
 19 20  1  0
 19 21  1  0
 21 22  1  0
 21 23  2  0
 23 24  1  0
 16 25  2  0
 25 26  1  0
  8 27  1  0
 27 28  2  0
 27 29  1  0
 29 30  1  0
 30 31  1  0
 30 32  1  0
 30 33  1  0
 29 34  1  0
 34 35  1  0
 35 36  1  0
 35 37  1  0
 34 38  2  0
 38 39  1  0
  7 40  1  0
 40 41  1  0
 40 42  2  0
 42 43  1  0
 42  2  1  0
 38  8  1  0
 25  9  1  0
 23 17  1  0
M  CHG  1  38   1
M  END
>  <score>  (82) 
6.00778

$$$$

     RDKit          3D

 58 61  0  0  0  0  0  0  0  0999 V2000
   16.2373   -8.7080   -1.8365 H   0  0  0  0  0  0  0  0  0  0  0  0
   15.9445   -7.7023   -1.5554 C   0  0  0  0  0  0  0  0  0  0  0  0
   16.8097   -6.9107   -0.7942 C   0  0  0  0  0  0  0  0  0  0  0  0
   17.7718   -7.2997   -0.4769 H   0  0  0  0  0  0  0  0  0  0  0  0
   16.4434   -5.6080   -0.4465 C   0  0  0  0  0  0  0  0  0  0  0  0
   17.1252   -4.9884    0.1303 H   0  0  0  0  0  0  0  0  0  0  0  0
   15.2050   -5.0851   -0.8478 C   0  0  0  0  0  0  0  0  0  0  0  0
   14.8522   -3.6346   -0.5754 C   0  0  0  0  0  0  0  0  0  0  0  0
   15.3819   -2.7386   -1.6779 C   0  0  0  0  0  0  0  0  0  0  0  0
   15.9950   -3.2052   -2.8510 C   0  0  0  0  0  0  0  0  0  0  0  0
   16.1550   -4.2692   -2.9930 H   0  0  0  0  0  0  0  0  0  0  0  0
   16.3634   -2.3034   -3.8593 C   0  0  0  0  0  0  0  0  0  0  0  0
   16.7763   -2.6606   -4.7860 H   0  0  0  0  0  0  0  0  0  0  0  0
   16.1899   -0.9281   -3.6946 C   0  0  0  0  0  0  0  0  0  0  0  0
   16.4848   -0.2383   -4.4803 H   0  0  0  0  0  0  0  0  0  0  0  0
   15.5964   -0.4567   -2.5238 C   0  0  0  0  0  0  0  0  0  0  0  0
   15.3349    0.9485   -2.2570 C   0  0  0  0  0  0  0  0  0  0  0  0
   16.1789    1.9905   -2.6656 C   0  0  0  0  0  0  0  0  0  0  0  0
   17.0697    1.7713   -3.2505 H   0  0  0  0  0  0  0  0  0  0  0  0
   15.8983    3.2997   -2.2484 C   0  0  0  0  0  0  0  0  0  0  0  0
   16.5409    4.1200   -2.5424 H   0  0  0  0  0  0  0  0  0  0  0  0
   14.7915    3.5646   -1.4215 C   0  0  0  0  0  0  0  0  0  0  0  0
   14.4862    4.9277   -0.8610 C   0  0  0  0  0  0  0  0  0  0  0  0
   14.4039    4.8200    0.6789 C   0  0  0  0  0  0  0  0  0  0  0  0
   14.9504    5.6358    1.1610 H   0  0  0  0  0  0  0  0  0  0  0  0
   14.8486    3.8861    1.0346 H   0  0  0  0  0  0  0  0  0  0  0  0
   13.3692    4.8342    1.0219 H   0  0  0  0  0  0  0  0  0  0  0  0
   15.5868    5.9164   -1.1850 C   0  0  0  0  0  0  0  0  0  0  0  0
   15.5026    6.2252   -2.2265 H   0  0  0  0  0  0  0  0  0  0  0  0
   15.5010    6.7926   -0.5342 H   0  0  0  0  0  0  0  0  0  0  0  0
   16.5628    5.4463   -1.0193 H   0  0  0  0  0  0  0  0  0  0  0  0
   13.1720    5.4013   -1.4989 C   0  0  0  0  0  0  0  0  0  0  0  0
   13.0726    6.4885   -1.3918 H   0  0  0  0  0  0  0  0  0  0  0  0
   13.1482    5.1596   -2.5678 H   0  0  0  0  0  0  0  0  0  0  0  0
   12.3277    4.8922   -1.0142 H   0  0  0  0  0  0  0  0  0  0  0  0
   13.9395    2.5224   -1.0727 C   0  0  0  0  0  0  0  0  0  0  0  0
   13.0725    2.7130   -0.4512 H   0  0  0  0  0  0  0  0  0  0  0  0
   14.2055    1.2333   -1.4815 C   0  0  0  0  0  0  0  0  0  0  0  0
   13.5413    0.4349   -1.1613 H   0  0  0  0  0  0  0  0  0  0  0  0
   15.1820   -1.3707   -1.5508 C   0  0  0  0  0  0  0  0  0  0  0  0
   14.6953   -1.0031   -0.6527 H   0  0  0  0  0  0  0  0  0  0  0  0
   13.3407   -3.3764   -0.3909 C   0  0  0  0  0  0  0  0  0  0  0  0
   12.4451   -3.5926   -1.2022 O   0  0  0  0  0  0  0  0  0  0  0  0
   13.1210   -2.7782    0.8368 N   0  0  0  0  0  0  0  0  0  0  0  0
   11.8440   -2.2955    1.3659 C   0  0  0  0  0  0  0  0  0  0  0  0
   11.5831   -2.8334    2.2833 H   0  0  0  0  0  0  0  0  0  0  0  0
   11.0359   -2.4457    0.6426 H   0  0  0  0  0  0  0  0  0  0  0  0
   11.8919   -1.2251    1.5971 H   0  0  0  0  0  0  0  0  0  0  0  0
   14.3436   -2.6674    1.4562 C   0  0  0  0  0  0  0  0  0  0  0  0
   14.5412   -2.1152    2.6879 N   0  0  0  0  0  0  0  0  0  0  0  0
   15.4499   -2.2561    3.1226 H   0  0  0  0  0  0  0  0  0  0  0  0
   13.7261   -1.9942    3.2869 H   0  0  0  0  0  0  0  0  0  0  0  0
   15.3112   -3.1556    0.7471 N   0  0  0  0  0  4  0  0  0  0  0  0
   16.2942   -3.1016    1.0151 H   0  0  0  0  0  0  0  0  0  0  0  0
   14.3397   -5.8903   -1.6075 C   0  0  0  0  0  0  0  0  0  0  0  0
   13.3829   -5.4962   -1.9394 H   0  0  0  0  0  0  0  0  0  0  0  0
   14.7059   -7.1932   -1.9569 C   0  0  0  0  0  0  0  0  0  0  0  0
   14.0313   -7.8050   -2.5471 H   0  0  0  0  0  0  0  0  0  0  0  0
  1  2  1  0
  2  3  2  0
  3  4  1  0
  3  5  1  0
  5  6  1  0
  5  7  2  0
  7  8  1  0
  8  9  1  0
  9 10  2  0
 10 11  1  0
 10 12  1  0
 12 13  1  0
 12 14  2  0
 14 15  1  0
 14 16  1  0
 16 17  1  0
 17 18  2  0
 18 19  1  0
 18 20  1  0
 20 21  1  0
 20 22  2  0
 22 23  1  0
 23 24  1  0
 24 25  1  0
 24 26  1  0
 24 27  1  0
 23 28  1  0
 28 29  1  0
 28 30  1  0
 28 31  1  0
 23 32  1  0
 32 33  1  0
 32 34  1  0
 32 35  1  0
 22 36  1  0
 36 37  1  0
 36 38  2  0
 38 39  1  0
 16 40  2  0
 40 41  1  0
  8 42  1  0
 42 43  2  0
 42 44  1  0
 44 45  1  0
 45 46  1  0
 45 47  1  0
 45 48  1  0
 44 49  1  0
 49 50  1  0
 50 51  1  0
 50 52  1  0
 49 53  2  0
 53 54  1  0
  7 55  1  0
 55 56  1  0
 55 57  2  0
 57 58  1  0
 57  2  1  0
 53  8  1  0
 40  9  1  0
 38 17  1  0
M  CHG  1  53   1
M  END
>  <score>  (83) 
6.00643

$$$$

     RDKit          3D

 47 50  0  0  0  0  0  0  0  0999 V2000
   10.7314   -9.3473    1.9583 H   0  0  0  0  0  0  0  0  0  0  0  0
   11.2579   -9.1101    1.0421 C   0  0  0  0  0  0  0  0  0  0  0  0
   10.8455   -8.0272    0.2584 C   0  0  0  0  0  0  0  0  0  0  0  0
   10.0031   -7.4213    0.5748 H   0  0  0  0  0  0  0  0  0  0  0  0
   11.5290   -7.7209   -0.9229 C   0  0  0  0  0  0  0  0  0  0  0  0
   11.2261   -6.8668   -1.5227 H   0  0  0  0  0  0  0  0  0  0  0  0
   12.6299   -8.4992   -1.3095 C   0  0  0  0  0  0  0  0  0  0  0  0
   13.5914   -8.0864   -2.7202 S   0  0  0  0  0  0  0  0  0  0  0  0
   14.6670   -6.9379   -1.9538 C   0  0  0  0  0  0  0  0  0  0  0  0
   15.8746   -7.4319   -1.4696 C   0  0  0  0  0  0  0  0  0  0  0  0
   16.1193   -8.4830   -1.6058 H   0  0  0  0  0  0  0  0  0  0  0  0
   16.7386   -6.5776   -0.7990 C   0  0  0  0  0  0  0  0  0  0  0  0
   17.6779   -6.9556   -0.4145 H   0  0  0  0  0  0  0  0  0  0  0  0
   16.3885   -5.2388   -0.6087 C   0  0  0  0  0  0  0  0  0  0  0  0
   17.0686   -4.5938   -0.0680 H   0  0  0  0  0  0  0  0  0  0  0  0
   15.1716   -4.7136   -1.0763 C   0  0  0  0  0  0  0  0  0  0  0  0
   14.8105   -3.2515   -0.7857 C   0  0  0  0  0  0  0  0  0  0  0  0
   15.3853   -2.2471   -1.7814 C   0  0  0  0  0  0  0  0  0  0  0  0
   15.9430   -2.6407   -3.0110 C   0  0  0  0  0  0  0  0  0  0  0  0
   16.0050   -3.6930   -3.2655 H   0  0  0  0  0  0  0  0  0  0  0  0
   16.4235   -1.6902   -3.9227 C   0  0  0  0  0  0  0  0  0  0  0  0
   16.8579   -2.0042   -4.8645 H   0  0  0  0  0  0  0  0  0  0  0  0
   16.3465   -0.3271   -3.6301 C   0  0  0  0  0  0  0  0  0  0  0  0
   16.7076    0.4096   -4.3442 H   0  0  0  0  0  0  0  0  0  0  0  0
   15.7948    0.0790   -2.4146 C   0  0  0  0  0  0  0  0  0  0  0  0
   15.7346    1.1356   -2.1783 H   0  0  0  0  0  0  0  0  0  0  0  0
   15.3190   -0.8687   -1.5014 C   0  0  0  0  0  0  0  0  0  0  0  0
   14.8957   -0.5258   -0.5612 H   0  0  0  0  0  0  0  0  0  0  0  0
   13.2955   -3.0256   -0.6072 C   0  0  0  0  0  0  0  0  0  0  0  0
   12.4274   -3.0846   -1.4756 O   0  0  0  0  0  0  0  0  0  0  0  0
   13.0229   -2.6725    0.7005 N   0  0  0  0  0  0  0  0  0  0  0  0
   11.7178   -2.3130    1.2631 C   0  0  0  0  0  0  0  0  0  0  0  0
   11.5019   -2.9208    2.1467 H   0  0  0  0  0  0  0  0  0  0  0  0
   10.9141   -2.4755    0.5375 H   0  0  0  0  0  0  0  0  0  0  0  0
   11.6949   -1.2594    1.5596 H   0  0  0  0  0  0  0  0  0  0  0  0
   14.2243   -2.6299    1.3657 C   0  0  0  0  0  0  0  0  0  0  0  0
   14.3929   -2.3357    2.6896 N   0  0  0  0  0  0  0  0  0  0  0  0
   15.3280   -2.3565    3.0947 H   0  0  0  0  0  0  0  0  0  0  0  0
   13.5796   -2.1267    3.2666 H   0  0  0  0  0  0  0  0  0  0  0  0
   15.2213   -2.9058    0.5931 N   0  0  0  0  0  4  0  0  0  0  0  0
   16.1918   -2.9023    0.9026 H   0  0  0  0  0  0  0  0  0  0  0  0
   14.3120   -5.5880   -1.7738 C   0  0  0  0  0  0  0  0  0  0  0  0
   13.3543   -5.2499   -2.1614 H   0  0  0  0  0  0  0  0  0  0  0  0
   13.0312   -9.5845   -0.5292 C   0  0  0  0  0  0  0  0  0  0  0  0
   13.8968  -10.1640   -0.8357 H   0  0  0  0  0  0  0  0  0  0  0  0
   12.3498   -9.8889    0.6484 C   0  0  0  0  0  0  0  0  0  0  0  0
   12.6785  -10.7211    1.2602 H   0  0  0  0  0  0  0  0  0  0  0  0
  1  2  1  0
  2  3  2  0
  3  4  1  0
  3  5  1  0
  5  6  1  0
  5  7  2  0
  7  8  1  0
  8  9  1  0
  9 10  2  0
 10 11  1  0
 10 12  1  0
 12 13  1  0
 12 14  2  0
 14 15  1  0
 14 16  1  0
 16 17  1  0
 17 18  1  0
 18 19  2  0
 19 20  1  0
 19 21  1  0
 21 22  1  0
 21 23  2  0
 23 24  1  0
 23 25  1  0
 25 26  1  0
 25 27  2  0
 27 28  1  0
 17 29  1  0
 29 30  2  0
 29 31  1  0
 31 32  1  0
 32 33  1  0
 32 34  1  0
 32 35  1  0
 31 36  1  0
 36 37  1  0
 37 38  1  0
 37 39  1  0
 36 40  2  0
 40 41  1  0
 16 42  2  0
 42 43  1  0
  7 44  1  0
 44 45  1  0
 44 46  2  0
 46 47  1  0
 46  2  1  0
 42  9  1  0
 40 17  1  0
 27 18  1  0
M  CHG  1  40   1
M  END
>  <score>  (84) 
5.99353

$$$$

     RDKit          3D

 51 54  0  0  0  0  0  0  0  0999 V2000
   16.1109   -8.4445   -1.6830 H   0  0  0  0  0  0  0  0  0  0  0  0
   15.8699   -7.4019   -1.5031 C   0  0  0  0  0  0  0  0  0  0  0  0
   16.7701   -6.5854   -0.8100 C   0  0  0  0  0  0  0  0  0  0  0  0
   17.7179   -6.9806   -0.4583 H   0  0  0  0  0  0  0  0  0  0  0  0
   16.4525   -5.2493   -0.5635 C   0  0  0  0  0  0  0  0  0  0  0  0
   17.1545   -4.6121   -0.0318 H   0  0  0  0  0  0  0  0  0  0  0  0
   15.2249   -4.7236   -0.9906 C   0  0  0  0  0  0  0  0  0  0  0  0
   14.8605   -3.2889   -0.6893 C   0  0  0  0  0  0  0  0  0  0  0  0
   15.3849   -2.3294   -1.7398 C   0  0  0  0  0  0  0  0  0  0  0  0
   15.9815   -2.7169   -2.9559 C   0  0  0  0  0  0  0  0  0  0  0  0
   16.1077   -3.7706   -3.1815 H   0  0  0  0  0  0  0  0  0  0  0  0
   16.4184   -1.7527   -3.8837 C   0  0  0  0  0  0  0  0  0  0  0  0
   16.8908   -2.0644   -4.8135 H   0  0  0  0  0  0  0  0  0  0  0  0
   16.2275   -0.3896   -3.6067 C   0  0  0  0  0  0  0  0  0  0  0  0
   16.5462    0.3714   -4.3100 H   0  0  0  0  0  0  0  0  0  0  0  0
   15.5963   -0.0107   -2.4205 C   0  0  0  0  0  0  0  0  0  0  0  0
   15.3092    1.2825   -2.0484 N   0  0  0  0  0  0  0  0  0  0  0  0
   15.0036    1.3616   -1.0800 H   0  0  0  0  0  0  0  0  0  0  0  0
   15.9996    2.4395   -2.5963 C   0  0  0  0  0  0  0  0  0  0  0  0
   16.0764    2.4056   -3.6916 H   0  0  0  0  0  0  0  0  0  0  0  0
   15.2574    3.6857   -2.1574 C   0  0  0  0  0  0  0  0  0  0  0  0
   14.4888    3.9508   -2.8857 H   0  0  0  0  0  0  0  0  0  0  0  0
   14.7776    3.5380   -1.1826 H   0  0  0  0  0  0  0  0  0  0  0  0
   16.3275    4.7478   -2.0247 C   0  0  0  0  0  0  0  0  0  0  0  0
   16.1956    5.3031   -1.0922 H   0  0  0  0  0  0  0  0  0  0  0  0
   16.2524    5.4481   -2.8554 H   0  0  0  0  0  0  0  0  0  0  0  0
   17.6773    4.0358   -2.0773 C   0  0  0  0  0  0  0  0  0  0  0  0
   18.1630    4.2701   -3.0257 H   0  0  0  0  0  0  0  0  0  0  0  0
   18.3472    4.3478   -1.2754 H   0  0  0  0  0  0  0  0  0  0  0  0
   17.3787    2.5596   -1.9908 C   0  0  0  0  0  0  0  0  0  0  0  0
   18.1125    1.9539   -2.5279 H   0  0  0  0  0  0  0  0  0  0  0  0
   17.3709    2.2446   -0.9438 H   0  0  0  0  0  0  0  0  0  0  0  0
   15.1937   -0.9671   -1.5097 C   0  0  0  0  0  0  0  0  0  0  0  0
   14.7101   -0.6289   -0.6008 H   0  0  0  0  0  0  0  0  0  0  0  0
   13.3441   -3.0646   -0.5217 C   0  0  0  0  0  0  0  0  0  0  0  0
   12.4703   -3.2130   -1.3745 O   0  0  0  0  0  0  0  0  0  0  0  0
   13.0804   -2.6433    0.7648 N   0  0  0  0  0  0  0  0  0  0  0  0
   11.7684   -2.2918    1.3103 C   0  0  0  0  0  0  0  0  0  0  0  0
   11.5431   -2.8945    2.1967 H   0  0  0  0  0  0  0  0  0  0  0  0
   10.9795   -2.4737    0.5702 H   0  0  0  0  0  0  0  0  0  0  0  0
   11.7342   -1.2321    1.5859 H   0  0  0  0  0  0  0  0  0  0  0  0
   14.2863   -2.5735    1.4293 C   0  0  0  0  0  0  0  0  0  0  0  0
   14.4613   -2.2094    2.7297 N   0  0  0  0  0  0  0  0  0  0  0  0
   15.3913   -2.2868    3.1393 H   0  0  0  0  0  0  0  0  0  0  0  0
   13.6461   -2.0940    3.3314 H   0  0  0  0  0  0  0  0  0  0  0  0
   15.2861   -2.9086    0.6776 N   0  0  0  0  0  4  0  0  0  0  0  0
   16.2477   -2.9802    1.0154 H   0  0  0  0  0  0  0  0  0  0  0  0
   14.3455   -5.5355   -1.7200 C   0  0  0  0  0  0  0  0  0  0  0  0
   13.4087   -5.1249   -2.0873 H   0  0  0  0  0  0  0  0  0  0  0  0
   14.6613   -6.8717   -1.9683 C   0  0  0  0  0  0  0  0  0  0  0  0
   13.9642   -7.4928   -2.5203 H   0  0  0  0  0  0  0  0  0  0  0  0
  1  2  1  0
  2  3  2  0
  3  4  1  0
  3  5  1  0
  5  6  1  0
  5  7  2  0
  7  8  1  0
  8  9  1  0
  9 10  2  0
 10 11  1  0
 10 12  1  0
 12 13  1  0
 12 14  2  0
 14 15  1  0
 14 16  1  0
 16 17  1  0
 17 18  1  0
 17 19  1  0
 19 20  1  0
 19 21  1  0
 21 22  1  0
 21 23  1  0
 21 24  1  0
 24 25  1  0
 24 26  1  0
 24 27  1  0
 27 28  1  0
 27 29  1  0
 27 30  1  0
 30 31  1  0
 30 32  1  0
 16 33  2  0
 33 34  1  0
  8 35  1  0
 35 36  2  0
 35 37  1  0
 37 38  1  0
 38 39  1  0
 38 40  1  0
 38 41  1  0
 37 42  1  0
 42 43  1  0
 43 44  1  0
 43 45  1  0
 42 46  2  0
 46 47  1  0
  7 48  1  0
 48 49  1  0
 48 50  2  0
 50 51  1  0
 50  2  1  0
 46  8  1  0
 33  9  1  0
 30 19  1  0
M  CHG  1  46   1
M  END
>  <score>  (85) 
5.9889

$$$$

     RDKit          3D

 46 49  0  0  0  0  0  0  0  0999 V2000
   16.1206   -8.4859   -1.6116 H   0  0  0  0  0  0  0  0  0  0  0  0
   15.8538   -7.4400   -1.4726 C   0  0  0  0  0  0  0  0  0  0  0  0
   16.7299   -6.5819   -0.8032 C   0  0  0  0  0  0  0  0  0  0  0  0
   17.6724   -6.9563   -0.4162 H   0  0  0  0  0  0  0  0  0  0  0  0
   16.3925   -5.2380   -0.6102 C   0  0  0  0  0  0  0  0  0  0  0  0
   17.0674   -4.5862   -0.0633 H   0  0  0  0  0  0  0  0  0  0  0  0
   15.1748   -4.7163   -1.0749 C   0  0  0  0  0  0  0  0  0  0  0  0
   14.8154   -3.2536   -0.7852 C   0  0  0  0  0  0  0  0  0  0  0  0
   15.3898   -2.2460   -1.7793 C   0  0  0  0  0  0  0  0  0  0  0  0
   15.9414   -2.6405   -3.0077 C   0  0  0  0  0  0  0  0  0  0  0  0
   16.0023   -3.6936   -3.2571 H   0  0  0  0  0  0  0  0  0  0  0  0
   16.4181   -1.6909   -3.9196 C   0  0  0  0  0  0  0  0  0  0  0  0
   16.8569   -2.0057   -4.8603 H   0  0  0  0  0  0  0  0  0  0  0  0
   16.3375   -0.3262   -3.6258 C   0  0  0  0  0  0  0  0  0  0  0  0
   16.7091    0.4070   -4.3366 H   0  0  0  0  0  0  0  0  0  0  0  0
   15.7939    0.1051   -2.4087 C   0  0  0  0  0  0  0  0  0  0  0  0
   15.7165    1.5498   -2.0891 C   0  0  0  0  0  0  0  0  0  0  0  0
   15.9684    2.0121   -0.7856 C   0  0  0  0  0  0  0  0  0  0  0  0
   16.2386    1.3057   -0.0081 H   0  0  0  0  0  0  0  0  0  0  0  0
   15.9010    3.3787   -0.4741 C   0  0  0  0  0  0  0  0  0  0  0  0
   16.1019    3.7366    0.5298 H   0  0  0  0  0  0  0  0  0  0  0  0
   15.5555    4.3128   -1.4491 C   0  0  0  0  0  0  0  0  0  0  0  0
   15.4729    5.6332   -1.1453 F   0  0  0  0  0  0  0  0  0  0  0  0
   15.2617    3.8709   -2.7393 C   0  0  0  0  0  0  0  0  0  0  0  0
   14.8147    4.7904   -3.6270 F   0  0  0  0  0  0  0  0  0  0  0  0
   15.3743    2.5029   -3.0691 C   0  0  0  0  0  0  0  0  0  0  0  0
   15.1527    2.1704   -4.0798 H   0  0  0  0  0  0  0  0  0  0  0  0
   15.3285   -0.8650   -1.5016 C   0  0  0  0  0  0  0  0  0  0  0  0
   14.8962   -0.5287   -0.5650 H   0  0  0  0  0  0  0  0  0  0  0  0
   13.3010   -3.0305   -0.6027 C   0  0  0  0  0  0  0  0  0  0  0  0
   12.4324   -3.0878   -1.4693 O   0  0  0  0  0  0  0  0  0  0  0  0
   13.0248   -2.6763    0.7023 N   0  0  0  0  0  0  0  0  0  0  0  0
   11.7187   -2.3132    1.2632 C   0  0  0  0  0  0  0  0  0  0  0  0
   11.5030   -2.9181    2.1477 H   0  0  0  0  0  0  0  0  0  0  0  0
   11.6954   -1.2605    1.5600 H   0  0  0  0  0  0  0  0  0  0  0  0
   10.9121   -2.4738    0.5407 H   0  0  0  0  0  0  0  0  0  0  0  0
   14.2269   -2.6290    1.3645 C   0  0  0  0  0  0  0  0  0  0  0  0
   14.3968   -2.3292    2.6859 N   0  0  0  0  0  0  0  0  0  0  0  0
   15.3319   -2.3536    3.0908 H   0  0  0  0  0  0  0  0  0  0  0  0
   13.5816   -2.1274    3.2615 H   0  0  0  0  0  0  0  0  0  0  0  0
   15.2220   -2.9049    0.5925 N   0  0  0  0  0  4  0  0  0  0  0  0
   16.1891   -2.9169    0.9073 H   0  0  0  0  0  0  0  0  0  0  0  0
   14.3046   -5.5876   -1.7674 C   0  0  0  0  0  0  0  0  0  0  0  0
   13.3542   -5.2308   -2.1549 H   0  0  0  0  0  0  0  0  0  0  0  0
   14.6433   -6.9384   -1.9616 C   0  0  0  0  0  0  0  0  0  0  0  0
   13.9720   -7.6111   -2.4881 H   0  0  0  0  0  0  0  0  0  0  0  0
  1  2  1  0
  2  3  2  0
  3  4  1  0
  3  5  1  0
  5  6  1  0
  5  7  2  0
  7  8  1  0
  8  9  1  0
  9 10  2  0
 10 11  1  0
 10 12  1  0
 12 13  1  0
 12 14  2  0
 14 15  1  0
 14 16  1  0
 16 17  1  0
 17 18  2  0
 18 19  1  0
 18 20  1  0
 20 21  1  0
 20 22  2  0
 22 23  1  0
 22 24  1  0
 24 25  1  0
 24 26  2  0
 26 27  1  0
 16 28  2  0
 28 29  1  0
  8 30  1  0
 30 31  2  0
 30 32  1  0
 32 33  1  0
 33 34  1  0
 33 35  1  0
 33 36  1  0
 32 37  1  0
 37 38  1  0
 38 39  1  0
 38 40  1  0
 37 41  2  0
 41 42  1  0
  7 43  1  0
 43 44  1  0
 43 45  2  0
 45 46  1  0
 45  2  1  0
 41  8  1  0
 28  9  1  0
 26 17  1  0
M  CHG  1  41   1
M  END
>  <score>  (86) 
5.98719

$$$$

     RDKit          3D

 54 57  0  0  0  0  0  0  0  0999 V2000
   16.3488   -8.6727   -1.8822 H   0  0  0  0  0  0  0  0  0  0  0  0
   16.0102   -7.6904   -1.5706 C   0  0  0  0  0  0  0  0  0  0  0  0
   16.8344   -6.8897   -0.7744 C   0  0  0  0  0  0  0  0  0  0  0  0
   17.8167   -7.2465   -0.4736 H   0  0  0  0  0  0  0  0  0  0  0  0
   16.4018   -5.6159   -0.3908 C   0  0  0  0  0  0  0  0  0  0  0  0
   17.0638   -4.9845    0.1956 H   0  0  0  0  0  0  0  0  0  0  0  0
   15.1417   -5.1313   -0.7883 C   0  0  0  0  0  0  0  0  0  0  0  0
   14.7400   -3.6965   -0.4975 C   0  0  0  0  0  0  0  0  0  0  0  0
   15.2915   -2.7651   -1.5629 C   0  0  0  0  0  0  0  0  0  0  0  0
   15.8343   -3.2312   -2.7688 C   0  0  0  0  0  0  0  0  0  0  0  0
   15.8796   -4.3015   -2.9502 H   0  0  0  0  0  0  0  0  0  0  0  0
   16.3468   -2.3334   -3.7098 C   0  0  0  0  0  0  0  0  0  0  0  0
   16.7314   -2.7110   -4.6453 H   0  0  0  0  0  0  0  0  0  0  0  0
   16.3755   -0.9602   -3.4363 C   0  0  0  0  0  0  0  0  0  0  0  0
   16.8018   -0.2708   -4.1579 H   0  0  0  0  0  0  0  0  0  0  0  0
   15.8320   -0.4810   -2.2396 C   0  0  0  0  0  0  0  0  0  0  0  0
   15.8442    0.9323   -1.8622 C   0  0  0  0  0  0  0  0  0  0  0  0
   16.9807    1.7364   -2.0187 C   0  0  0  0  0  0  0  0  0  0  0  0
   17.8645    1.3451   -2.5217 H   0  0  0  0  0  0  0  0  0  0  0  0
   16.9859    3.0319   -1.4791 C   0  0  0  0  0  0  0  0  0  0  0  0
   17.8662    3.6644   -1.5618 H   0  0  0  0  0  0  0  0  0  0  0  0
   15.8469    3.5410   -0.8304 C   0  0  0  0  0  0  0  0  0  0  0  0
   15.8881    4.8257   -0.3677 O   0  0  0  0  0  0  0  0  0  0  0  0
   15.2794    5.7090   -1.3080 C   0  0  0  0  0  0  0  0  0  0  0  0
   15.8498    5.6929   -2.2410 H   0  0  0  0  0  0  0  0  0  0  0  0
   15.2957    6.7222   -0.9109 H   0  0  0  0  0  0  0  0  0  0  0  0
   14.2404    5.4220   -1.5084 H   0  0  0  0  0  0  0  0  0  0  0  0
   14.6762    2.7596   -0.7162 C   0  0  0  0  0  0  0  0  0  0  0  0
   13.5320    3.2620   -0.1244 O   0  0  0  0  0  0  0  0  0  0  0  0
   12.3052    2.5755   -0.4360 C   0  0  0  0  0  0  0  0  0  0  0  0
   12.3561    1.5209   -0.1461 H   0  0  0  0  0  0  0  0  0  0  0  0
   11.4663    3.0268    0.0977 H   0  0  0  0  0  0  0  0  0  0  0  0
   12.1001    2.6448   -1.5094 H   0  0  0  0  0  0  0  0  0  0  0  0
   14.7129    1.4568   -1.2251 C   0  0  0  0  0  0  0  0  0  0  0  0
   13.8335    0.8370   -1.1055 H   0  0  0  0  0  0  0  0  0  0  0  0
   15.2733   -1.3876   -1.3348 C   0  0  0  0  0  0  0  0  0  0  0  0
   14.8537   -1.0091   -0.4083 H   0  0  0  0  0  0  0  0  0  0  0  0
   13.2286   -3.4449   -0.2891 C   0  0  0  0  0  0  0  0  0  0  0  0
   12.3081   -3.6992   -1.0659 O   0  0  0  0  0  0  0  0  0  0  0  0
   13.0364   -2.8211    0.9318 N   0  0  0  0  0  0  0  0  0  0  0  0
   11.7705   -2.3491    1.4939 C   0  0  0  0  0  0  0  0  0  0  0  0
   11.5059   -2.9166    2.3928 H   0  0  0  0  0  0  0  0  0  0  0  0
   10.9558   -2.4718    0.7722 H   0  0  0  0  0  0  0  0  0  0  0  0
   11.8239   -1.2848    1.7524 H   0  0  0  0  0  0  0  0  0  0  0  0
   14.2668   -2.7956    1.5640 C   0  0  0  0  0  0  0  0  0  0  0  0
   14.5462   -2.3344    2.8123 N   0  0  0  0  0  0  0  0  0  0  0  0
   13.8455   -1.7920    3.3150 H   0  0  0  0  0  0  0  0  0  0  0  0
   15.5280   -2.2337    3.0635 H   0  0  0  0  0  0  0  0  0  0  0  0
   15.2132   -3.2859    0.8376 N   0  0  0  0  0  4  0  0  0  0  0  0
   16.1929   -3.3293    1.1302 H   0  0  0  0  0  0  0  0  0  0  0  0
   14.3190   -5.9523   -1.5741 C   0  0  0  0  0  0  0  0  0  0  0  0
   13.3548   -5.5853   -1.9127 H   0  0  0  0  0  0  0  0  0  0  0  0
   14.7513   -7.2248   -1.9661 C   0  0  0  0  0  0  0  0  0  0  0  0
   14.1193   -7.8439   -2.5964 H   0  0  0  0  0  0  0  0  0  0  0  0
  1  2  1  0
  2  3  2  0
  3  4  1  0
  3  5  1  0
  5  6  1  0
  5  7  2  0
  7  8  1  0
  8  9  1  0
  9 10  2  0
 10 11  1  0
 10 12  1  0
 12 13  1  0
 12 14  2  0
 14 15  1  0
 14 16  1  0
 16 17  1  0
 17 18  2  0
 18 19  1  0
 18 20  1  0
 20 21  1  0
 20 22  2  0
 22 23  1  0
 23 24  1  0
 24 25  1  0
 24 26  1  0
 24 27  1  0
 22 28  1  0
 28 29  1  0
 29 30  1  0
 30 31  1  0
 30 32  1  0
 30 33  1  0
 28 34  2  0
 34 35  1  0
 16 36  2  0
 36 37  1  0
  8 38  1  0
 38 39  2  0
 38 40  1  0
 40 41  1  0
 41 42  1  0
 41 43  1  0
 41 44  1  0
 40 45  1  0
 45 46  1  0
 46 47  1  0
 46 48  1  0
 45 49  2  0
 49 50  1  0
  7 51  1  0
 51 52  1  0
 51 53  2  0
 53 54  1  0
 53  2  1  0
 49  8  1  0
 36  9  1  0
 34 17  1  0
M  CHG  1  49   1
M  END
>  <score>  (87) 
5.98031

$$$$

     RDKit          3D

 51 54  0  0  0  0  0  0  0  0999 V2000
   16.1062   -8.4503   -1.6666 H   0  0  0  0  0  0  0  0  0  0  0  0
   15.8667   -7.4035   -1.5025 C   0  0  0  0  0  0  0  0  0  0  0  0
   16.7633   -6.5822   -0.8097 C   0  0  0  0  0  0  0  0  0  0  0  0
   17.7048   -6.9769   -0.4380 H   0  0  0  0  0  0  0  0  0  0  0  0
   16.4427   -5.2414   -0.5797 C   0  0  0  0  0  0  0  0  0  0  0  0
   17.1371   -4.6043   -0.0402 H   0  0  0  0  0  0  0  0  0  0  0  0
   15.2228   -4.7115   -1.0225 C   0  0  0  0  0  0  0  0  0  0  0  0
   14.8543   -3.2771   -0.7050 C   0  0  0  0  0  0  0  0  0  0  0  0
   15.4151   -2.2656   -1.6895 C   0  0  0  0  0  0  0  0  0  0  0  0
   15.9364   -2.6324   -2.9413 C   0  0  0  0  0  0  0  0  0  0  0  0
   15.9566   -3.6763   -3.2418 H   0  0  0  0  0  0  0  0  0  0  0  0
   16.4179   -1.6510   -3.8153 C   0  0  0  0  0  0  0  0  0  0  0  0
   16.8228   -1.9317   -4.7806 H   0  0  0  0  0  0  0  0  0  0  0  0
   16.3623   -0.3010   -3.4568 C   0  0  0  0  0  0  0  0  0  0  0  0
   16.7545    0.4592   -4.1264 H   0  0  0  0  0  0  0  0  0  0  0  0
   15.7935    0.0928   -2.2354 C   0  0  0  0  0  0  0  0  0  0  0  0
   15.6346    1.5683   -1.8891 C   0  0  0  0  0  0  0  0  0  0  0  0
   15.2397    1.6648   -0.8693 H   0  0  0  0  0  0  0  0  0  0  0  0
   17.0037    2.2669   -1.9439 C   0  0  0  0  0  0  0  0  0  0  0  0
   17.6468    1.8563   -1.1758 H   0  0  0  0  0  0  0  0  0  0  0  0
   17.4755    2.0884   -2.9165 H   0  0  0  0  0  0  0  0  0  0  0  0
   16.8793    3.7667   -1.7283 C   0  0  0  0  0  0  0  0  0  0  0  0
   17.8683    4.2334   -1.6899 H   0  0  0  0  0  0  0  0  0  0  0  0
   16.3647    3.9864   -0.7837 H   0  0  0  0  0  0  0  0  0  0  0  0
   16.1097    4.2512   -2.8731 N   0  0  0  0  0  0  0  0  0  0  0  0
   16.5639    3.9573   -3.7439 H   0  0  0  0  0  0  0  0  0  0  0  0
   14.7139    3.7947   -2.8433 C   0  0  0  0  0  0  0  0  0  0  0  0
   14.2295    4.1784   -1.9410 H   0  0  0  0  0  0  0  0  0  0  0  0
   14.1757    4.2153   -3.7003 H   0  0  0  0  0  0  0  0  0  0  0  0
   14.6415    2.2557   -2.8624 C   0  0  0  0  0  0  0  0  0  0  0  0
   13.6180    1.9493   -2.6190 H   0  0  0  0  0  0  0  0  0  0  0  0
   14.8583    1.9212   -3.8797 H   0  0  0  0  0  0  0  0  0  0  0  0
   15.3423   -0.9033   -1.3579 C   0  0  0  0  0  0  0  0  0  0  0  0
   14.9246   -0.6197   -0.3953 H   0  0  0  0  0  0  0  0  0  0  0  0
   13.3358   -3.0761   -0.5419 C   0  0  0  0  0  0  0  0  0  0  0  0
   12.4687   -3.2230   -1.4044 O   0  0  0  0  0  0  0  0  0  0  0  0
   13.0622   -2.6721    0.7481 N   0  0  0  0  0  0  0  0  0  0  0  0
   11.7573   -2.3037    1.2988 C   0  0  0  0  0  0  0  0  0  0  0  0
   10.9596   -2.4752    0.5658 H   0  0  0  0  0  0  0  0  0  0  0  0
   11.7432   -1.2431    1.5761 H   0  0  0  0  0  0  0  0  0  0  0  0
   11.5327   -2.9023    2.1895 H   0  0  0  0  0  0  0  0  0  0  0  0
   14.2675   -2.6045    1.4144 C   0  0  0  0  0  0  0  0  0  0  0  0
   14.4534   -2.2085    2.7018 N   0  0  0  0  0  0  0  0  0  0  0  0
   13.6425   -2.1040    3.3090 H   0  0  0  0  0  0  0  0  0  0  0  0
   15.3858   -2.2964    3.1065 H   0  0  0  0  0  0  0  0  0  0  0  0
   15.2643   -2.9591    0.6750 N   0  0  0  0  0  4  0  0  0  0  0  0
   16.2298   -3.0108    1.0072 H   0  0  0  0  0  0  0  0  0  0  0  0
   14.3375   -5.5379   -1.7316 C   0  0  0  0  0  0  0  0  0  0  0  0
   13.3930   -5.1391   -2.0899 H   0  0  0  0  0  0  0  0  0  0  0  0
   14.6559   -6.8796   -1.9713 C   0  0  0  0  0  0  0  0  0  0  0  0
   13.9569   -7.5107   -2.5127 H   0  0  0  0  0  0  0  0  0  0  0  0
  1  2  1  0
  2  3  2  0
  3  4  1  0
  3  5  1  0
  5  6  1  0
  5  7  2  0
  7  8  1  0
  8  9  1  0
  9 10  2  0
 10 11  1  0
 10 12  1  0
 12 13  1  0
 12 14  2  0
 14 15  1  0
 14 16  1  0
 16 17  1  0
 17 18  1  0
 17 19  1  0
 19 20  1  0
 19 21  1  0
 19 22  1  0
 22 23  1  0
 22 24  1  0
 22 25  1  0
 25 26  1  0
 25 27  1  0
 27 28  1  0
 27 29  1  0
 27 30  1  0
 30 31  1  0
 30 32  1  0
 16 33  2  0
 33 34  1  0
  8 35  1  0
 35 36  2  0
 35 37  1  0
 37 38  1  0
 38 39  1  0
 38 40  1  0
 38 41  1  0
 37 42  1  0
 42 43  1  0
 43 44  1  0
 43 45  1  0
 42 46  2  0
 46 47  1  0
  7 48  1  0
 48 49  1  0
 48 50  2  0
 50 51  1  0
 50  2  1  0
 46  8  1  0
 33  9  1  0
 30 17  1  0
M  CHG  1  46   1
M  END
>  <score>  (88) 
5.97038

$$$$

     RDKit          3D

 40 42  0  0  0  0  0  0  0  0999 V2000
   16.0841   -8.4663   -1.6468 H   0  0  0  0  0  0  0  0  0  0  0  0
   15.8190   -7.4189   -1.5486 C   0  0  0  0  0  0  0  0  0  0  0  0
   16.6958   -6.5486   -0.8983 C   0  0  0  0  0  0  0  0  0  0  0  0
   17.6501   -6.9008   -0.5173 H   0  0  0  0  0  0  0  0  0  0  0  0
   16.3394   -5.2125   -0.7161 C   0  0  0  0  0  0  0  0  0  0  0  0
   17.0282   -4.5346   -0.2202 H   0  0  0  0  0  0  0  0  0  0  0  0
   15.0982   -4.7239   -1.1475 C   0  0  0  0  0  0  0  0  0  0  0  0
   14.7494   -3.2667   -0.8369 C   0  0  0  0  0  0  0  0  0  0  0  0
   15.3399   -2.2643   -1.8076 C   0  0  0  0  0  0  0  0  0  0  0  0
   15.9208   -2.6632   -3.0170 C   0  0  0  0  0  0  0  0  0  0  0  0
   15.9714   -3.7201   -3.2607 H   0  0  0  0  0  0  0  0  0  0  0  0
   16.4321   -1.7118   -3.9059 C   0  0  0  0  0  0  0  0  0  0  0  0
   16.8864   -2.0255   -4.8401 H   0  0  0  0  0  0  0  0  0  0  0  0
   16.3499   -0.3491   -3.5918 C   0  0  0  0  0  0  0  0  0  0  0  0
   16.7399    0.4056   -4.2667 H   0  0  0  0  0  0  0  0  0  0  0  0
   15.7559    0.0707   -2.4006 C   0  0  0  0  0  0  0  0  0  0  0  0
   15.6726    1.4415   -2.1511 N   0  0  0  0  0  0  0  0  0  0  0  0
   16.1961    2.0266   -2.8088 H   0  0  0  0  0  0  0  0  0  0  0  0
   15.1517    2.0136   -0.9355 N   0  0  0  0  0  0  0  0  0  0  0  0
   14.1768    1.7464   -0.7618 H   0  0  0  0  0  0  0  0  0  0  0  0
   15.2632    3.0290   -0.8944 H   0  0  0  0  0  0  0  0  0  0  0  0
   15.2588   -0.8896   -1.5153 C   0  0  0  0  0  0  0  0  0  0  0  0
   14.8055   -0.5554   -0.5883 H   0  0  0  0  0  0  0  0  0  0  0  0
   13.2519   -2.9750   -0.6721 C   0  0  0  0  0  0  0  0  0  0  0  0
   12.3677   -3.1737   -1.4959 O   0  0  0  0  0  0  0  0  0  0  0  0
   13.0148   -2.4473    0.5813 N   0  0  0  0  0  0  0  0  0  0  0  0
   11.6967   -2.2175    1.1630 C   0  0  0  0  0  0  0  0  0  0  0  0
   10.9097   -2.4670    0.4452 H   0  0  0  0  0  0  0  0  0  0  0  0
   11.5443   -2.8531    2.0398 H   0  0  0  0  0  0  0  0  0  0  0  0
   11.5867   -1.1662    1.4499 H   0  0  0  0  0  0  0  0  0  0  0  0
   14.1915   -2.5556    1.2789 C   0  0  0  0  0  0  0  0  0  0  0  0
   14.3418   -2.4181    2.6208 N   0  0  0  0  0  0  0  0  0  0  0  0
   15.2839   -2.4069    3.0057 H   0  0  0  0  0  0  0  0  0  0  0  0
   13.5802   -2.0009    3.1467 H   0  0  0  0  0  0  0  0  0  0  0  0
   15.1739   -2.9420    0.5402 N   0  0  0  0  0  4  0  0  0  0  0  0
   16.0983   -3.1619    0.9163 H   0  0  0  0  0  0  0  0  0  0  0  0
   14.2329   -5.6002   -1.8369 C   0  0  0  0  0  0  0  0  0  0  0  0
   13.2778   -5.2559   -2.2246 H   0  0  0  0  0  0  0  0  0  0  0  0
   14.5961   -6.9434   -2.0340 C   0  0  0  0  0  0  0  0  0  0  0  0
   13.9316   -7.6319   -2.5498 H   0  0  0  0  0  0  0  0  0  0  0  0
  1  2  1  0
  2  3  2  0
  3  4  1  0
  3  5  1  0
  5  6  1  0
  5  7  2  0
  7  8  1  0
  8  9  1  0
  9 10  2  0
 10 11  1  0
 10 12  1  0
 12 13  1  0
 12 14  2  0
 14 15  1  0
 14 16  1  0
 16 17  1  0
 17 18  1  0
 17 19  1  0
 19 20  1  0
 19 21  1  0
 16 22  2  0
 22 23  1  0
  8 24  1  0
 24 25  2  0
 24 26  1  0
 26 27  1  0
 27 28  1  0
 27 29  1  0
 27 30  1  0
 26 31  1  0
 31 32  1  0
 32 33  1  0
 32 34  1  0
 31 35  2  0
 35 36  1  0
  7 37  1  0
 37 38  1  0
 37 39  2  0
 39 40  1  0
 39  2  1  0
 35  8  1  0
 22  9  1  0
M  CHG  1  35   1
M  END
>  <score>  (89) 
5.96894

$$$$

     RDKit          3D

 58 61  0  0  0  0  0  0  0  0999 V2000
   16.3013   -8.8861   -1.6245 H   0  0  0  0  0  0  0  0  0  0  0  0
   15.9758   -7.8960   -1.3226 C   0  0  0  0  0  0  0  0  0  0  0  0
   16.8304   -7.0653   -0.5895 C   0  0  0  0  0  0  0  0  0  0  0  0
   17.8293   -7.4000   -0.3299 H   0  0  0  0  0  0  0  0  0  0  0  0
   16.4113   -5.7850   -0.2150 C   0  0  0  0  0  0  0  0  0  0  0  0
   17.0916   -5.1205    0.3110 H   0  0  0  0  0  0  0  0  0  0  0  0
   15.1247   -5.3389   -0.5418 C   0  0  0  0  0  0  0  0  0  0  0  0
   14.7065   -3.9039   -0.3031 C   0  0  0  0  0  0  0  0  0  0  0  0
   14.9980   -3.1013   -1.5540 C   0  0  0  0  0  0  0  0  0  0  0  0
   15.5743   -3.6939   -2.7002 C   0  0  0  0  0  0  0  0  0  0  0  0
   15.8830   -4.7383   -2.6884 H   0  0  0  0  0  0  0  0  0  0  0  0
   15.7434   -2.9592   -3.8726 C   0  0  0  0  0  0  0  0  0  0  0  0
   16.1758   -3.4203   -4.7538 H   0  0  0  0  0  0  0  0  0  0  0  0
   15.3310   -1.6269   -3.9151 C   0  0  0  0  0  0  0  0  0  0  0  0
   15.4794   -1.0549   -4.8232 H   0  0  0  0  0  0  0  0  0  0  0  0
   14.7243   -1.0348   -2.7988 C   0  0  0  0  0  0  0  0  0  0  0  0
   14.2468    0.2669   -2.8244 N   0  0  0  0  0  0  0  0  0  0  0  0
   13.9971    0.6709   -1.9315 H   0  0  0  0  0  0  0  0  0  0  0  0
   14.6690    1.1700   -3.7584 C   0  0  0  0  0  0  0  0  0  0  0  0
   15.1731    0.8719   -4.8256 O   0  0  0  0  0  0  0  0  0  0  0  0
   14.6080    2.4653   -3.3531 N   0  0  0  0  0  0  0  0  0  0  0  0
   13.9025    2.5950   -2.6394 H   0  0  0  0  0  0  0  0  0  0  0  0
   15.8920    3.0722   -3.0434 C   0  0  0  0  0  0  0  0  0  0  0  0
   16.5788    2.9381   -3.8905 H   0  0  0  0  0  0  0  0  0  0  0  0
   15.6397    4.5677   -2.8654 C   0  0  0  0  0  0  0  0  0  0  0  0
   14.9600    4.9108   -3.6502 H   0  0  0  0  0  0  0  0  0  0  0  0
   16.5909    5.0888   -2.9969 H   0  0  0  0  0  0  0  0  0  0  0  0
   15.0422    4.9548   -1.5061 C   0  0  0  0  0  0  0  0  0  0  0  0
   13.9716    4.7313   -1.5000 H   0  0  0  0  0  0  0  0  0  0  0  0
   15.1443    6.0359   -1.3881 H   0  0  0  0  0  0  0  0  0  0  0  0
   15.6994    4.2589   -0.3068 C   0  0  0  0  0  0  0  0  0  0  0  0
   14.9564    3.6469    0.2147 H   0  0  0  0  0  0  0  0  0  0  0  0
   16.0426    5.0210    0.3983 H   0  0  0  0  0  0  0  0  0  0  0  0
   16.8867    3.3818   -0.7052 C   0  0  0  0  0  0  0  0  0  0  0  0
   17.7040    4.0272   -1.0453 H   0  0  0  0  0  0  0  0  0  0  0  0
   17.2312    2.8136    0.1620 H   0  0  0  0  0  0  0  0  0  0  0  0
   16.5101    2.3888   -1.8089 C   0  0  0  0  0  0  0  0  0  0  0  0
   17.4110    1.8412   -2.1079 H   0  0  0  0  0  0  0  0  0  0  0  0
   15.8020    1.6521   -1.4124 H   0  0  0  0  0  0  0  0  0  0  0  0
   14.5793   -1.7627   -1.6208 C   0  0  0  0  0  0  0  0  0  0  0  0
   14.1155   -1.2955   -0.7528 H   0  0  0  0  0  0  0  0  0  0  0  0
   13.2130   -3.7330    0.0313 C   0  0  0  0  0  0  0  0  0  0  0  0
   12.2560   -4.0603   -0.6662 O   0  0  0  0  0  0  0  0  0  0  0  0
   13.0822   -3.0025    1.1921 N   0  0  0  0  0  0  0  0  0  0  0  0
   11.8769   -2.3247    1.6696 C   0  0  0  0  0  0  0  0  0  0  0  0
   11.0553   -2.4299    0.9535 H   0  0  0  0  0  0  0  0  0  0  0  0
   11.5519   -2.7423    2.6277 H   0  0  0  0  0  0  0  0  0  0  0  0
   12.0684   -1.2539    1.8065 H   0  0  0  0  0  0  0  0  0  0  0  0
   14.3500   -2.7736    1.6644 C   0  0  0  0  0  0  0  0  0  0  0  0
   14.5794   -2.0689    2.8044 N   0  0  0  0  0  0  0  0  0  0  0  0
   15.4932   -2.1801    3.2306 H   0  0  0  0  0  0  0  0  0  0  0  0
   13.7837   -1.9313    3.4231 H   0  0  0  0  0  0  0  0  0  0  0  0
   15.2727   -3.2881    0.9175 N   0  0  0  0  0  4  0  0  0  0  0  0
   16.2734   -3.1729    1.0900 H   0  0  0  0  0  0  0  0  0  0  0  0
   14.2800   -6.1724   -1.2888 C   0  0  0  0  0  0  0  0  0  0  0  0
   13.3049   -5.8063   -1.5984 H   0  0  0  0  0  0  0  0  0  0  0  0
   14.7042   -7.4418   -1.6832 C   0  0  0  0  0  0  0  0  0  0  0  0
   14.0489   -8.0575   -2.2895 H   0  0  0  0  0  0  0  0  0  0  0  0
  1  2  1  0
  2  3  2  0
  3  4  1  0
  3  5  1  0
  5  6  1  0
  5  7  2  0
  7  8  1  0
  8  9  1  0
  9 10  2  0
 10 11  1  0
 10 12  1  0
 12 13  1  0
 12 14  2  0
 14 15  1  0
 14 16  1  0
 16 17  1  0
 17 18  1  0
 17 19  1  0
 19 20  2  0
 19 21  1  0
 21 22  1  0
 21 23  1  0
 23 24  1  0
 23 25  1  0
 25 26  1  0
 25 27  1  0
 25 28  1  0
 28 29  1  0
 28 30  1  0
 28 31  1  0
 31 32  1  0
 31 33  1  0
 31 34  1  0
 34 35  1  0
 34 36  1  0
 34 37  1  0
 37 38  1  0
 37 39  1  0
 16 40  2  0
 40 41  1  0
  8 42  1  0
 42 43  2  0
 42 44  1  0
 44 45  1  0
 45 46  1  0
 45 47  1  0
 45 48  1  0
 44 49  1  0
 49 50  1  0
 50 51  1  0
 50 52  1  0
 49 53  2  0
 53 54  1  0
  7 55  1  0
 55 56  1  0
 55 57  2  0
 57 58  1  0
 57  2  1  0
 53  8  1  0
 40  9  1  0
 37 23  1  0
M  CHG  1  53   1
M  END
>  <score>  (90) 
5.96379

$$$$

     RDKit          3D

 48 51  0  0  0  0  0  0  0  0999 V2000
   16.0981   -8.4893   -1.6968 H   0  0  0  0  0  0  0  0  0  0  0  0
   15.8573   -7.4445   -1.5277 C   0  0  0  0  0  0  0  0  0  0  0  0
   16.7583   -6.6205   -0.8477 C   0  0  0  0  0  0  0  0  0  0  0  0
   17.7018   -7.0111   -0.4878 H   0  0  0  0  0  0  0  0  0  0  0  0
   16.4482   -5.2814   -0.6190 C   0  0  0  0  0  0  0  0  0  0  0  0
   17.1524   -4.6360   -0.0968 H   0  0  0  0  0  0  0  0  0  0  0  0
   15.2227   -4.7537   -1.0407 C   0  0  0  0  0  0  0  0  0  0  0  0
   14.8986   -3.3087   -0.7230 C   0  0  0  0  0  0  0  0  0  0  0  0
   15.4458   -2.3638   -1.7774 C   0  0  0  0  0  0  0  0  0  0  0  0
   16.0048   -2.7736   -3.0065 C   0  0  0  0  0  0  0  0  0  0  0  0
   16.0579   -3.8282   -3.2658 H   0  0  0  0  0  0  0  0  0  0  0  0
   16.5038   -1.8153   -3.9032 C   0  0  0  0  0  0  0  0  0  0  0  0
   16.9467   -2.1133   -4.8478 H   0  0  0  0  0  0  0  0  0  0  0  0
   16.4258   -0.4526   -3.5932 C   0  0  0  0  0  0  0  0  0  0  0  0
   16.8171    0.2917   -4.2797 H   0  0  0  0  0  0  0  0  0  0  0  0
   15.8100   -0.0412   -2.4052 C   0  0  0  0  0  0  0  0  0  0  0  0
   15.6097    1.3562   -2.0511 C   0  0  0  0  0  0  0  0  0  0  0  0
   14.4722    1.7101   -1.3165 C   0  0  0  0  0  0  0  0  0  0  0  0
   13.7464    0.9521   -1.0434 H   0  0  0  0  0  0  0  0  0  0  0  0
   14.2512    3.0231   -0.9277 C   0  0  0  0  0  0  0  0  0  0  0  0
   13.3586    3.2720   -0.3562 H   0  0  0  0  0  0  0  0  0  0  0  0
   15.1804    4.0161   -1.2699 C   0  0  0  0  0  0  0  0  0  0  0  0
   14.9702    5.3382   -0.8539 N   0  0  0  0  0  4  0  0  0  0  0  0
   15.5158    6.2198   -1.4971 O   0  0  0  0  0  0  0  0  0  0  0  0
   14.2693    5.5385    0.1387 O   0  0  0  0  0  1  0  0  0  0  0  0
   16.3255    3.6640   -2.0185 C   0  0  0  0  0  0  0  0  0  0  0  0
   17.0710    4.4138   -2.2810 H   0  0  0  0  0  0  0  0  0  0  0  0
   16.5337    2.3390   -2.4052 C   0  0  0  0  0  0  0  0  0  0  0  0
   17.4211    2.0509   -2.9547 H   0  0  0  0  0  0  0  0  0  0  0  0
   15.3418   -1.0027   -1.5151 C   0  0  0  0  0  0  0  0  0  0  0  0
   14.8877   -0.6860   -0.5799 H   0  0  0  0  0  0  0  0  0  0  0  0
   13.4003   -3.0420   -0.4950 C   0  0  0  0  0  0  0  0  0  0  0  0
   12.5009   -3.1634   -1.3204 O   0  0  0  0  0  0  0  0  0  0  0  0
   13.1908   -2.6439    0.8105 N   0  0  0  0  0  0  0  0  0  0  0  0
   11.9231   -2.3040    1.4418 C   0  0  0  0  0  0  0  0  0  0  0  0
   11.0866   -2.8442    0.9743 H   0  0  0  0  0  0  0  0  0  0  0  0
   11.9669   -2.5741    2.5041 H   0  0  0  0  0  0  0  0  0  0  0  0
   11.7352   -1.2251    1.3647 H   0  0  0  0  0  0  0  0  0  0  0  0
   14.4085   -2.6648    1.4433 C   0  0  0  0  0  0  0  0  0  0  0  0
   14.5492   -2.4414    2.7820 N   0  0  0  0  0  0  0  0  0  0  0  0
   13.7653   -2.0151    3.2685 H   0  0  0  0  0  0  0  0  0  0  0  0
   15.4944   -2.2901    3.1307 H   0  0  0  0  0  0  0  0  0  0  0  0
   15.3786   -2.9651    0.6397 N   0  0  0  0  0  4  0  0  0  0  0  0
   16.3122   -3.2025    0.9733 H   0  0  0  0  0  0  0  0  0  0  0  0
   14.3315   -5.5738   -1.7574 C   0  0  0  0  0  0  0  0  0  0  0  0
   13.3910   -5.1731   -2.1261 H   0  0  0  0  0  0  0  0  0  0  0  0
   14.6501   -6.9161   -1.9938 C   0  0  0  0  0  0  0  0  0  0  0  0
   13.9561   -7.5491   -2.5355 H   0  0  0  0  0  0  0  0  0  0  0  0
  1  2  1  0
  2  3  2  0
  3  4  1  0
  3  5  1  0
  5  6  1  0
  5  7  2  0
  7  8  1  0
  8  9  1  0
  9 10  2  0
 10 11  1  0
 10 12  1  0
 12 13  1  0
 12 14  2  0
 14 15  1  0
 14 16  1  0
 16 17  1  0
 17 18  2  0
 18 19  1  0
 18 20  1  0
 20 21  1  0
 20 22  2  0
 22 23  1  0
 23 24  2  0
 23 25  1  0
 22 26  1  0
 26 27  1  0
 26 28  2  0
 28 29  1  0
 16 30  2  0
 30 31  1  0
  8 32  1  0
 32 33  2  0
 32 34  1  0
 34 35  1  0
 35 36  1  0
 35 37  1  0
 35 38  1  0
 34 39  1  0
 39 40  1  0
 40 41  1  0
 40 42  1  0
 39 43  2  0
 43 44  1  0
  7 45  1  0
 45 46  1  0
 45 47  2  0
 47 48  1  0
 47  2  1  0
 43  8  1  0
 30  9  1  0
 28 17  1  0
M  CHG  3  23   1  25  -1  43   1
M  END
>  <score>  (91) 
5.96131

$$$$

     RDKit          3D

 48 51  0  0  0  0  0  0  0  0999 V2000
   16.1220   -8.4866   -1.6113 H   0  0  0  0  0  0  0  0  0  0  0  0
   15.8536   -7.4416   -1.4725 C   0  0  0  0  0  0  0  0  0  0  0  0
   16.7286   -6.5839   -0.8018 C   0  0  0  0  0  0  0  0  0  0  0  0
   17.6725   -6.9559   -0.4174 H   0  0  0  0  0  0  0  0  0  0  0  0
   16.3920   -5.2389   -0.6112 C   0  0  0  0  0  0  0  0  0  0  0  0
   17.0668   -4.5876   -0.0643 H   0  0  0  0  0  0  0  0  0  0  0  0
   15.1726   -4.7168   -1.0744 C   0  0  0  0  0  0  0  0  0  0  0  0
   14.8144   -3.2527   -0.7846 C   0  0  0  0  0  0  0  0  0  0  0  0
   15.3917   -2.2460   -1.7790 C   0  0  0  0  0  0  0  0  0  0  0  0
   15.9421   -2.6404   -3.0088 C   0  0  0  0  0  0  0  0  0  0  0  0
   16.0032   -3.6932   -3.2584 H   0  0  0  0  0  0  0  0  0  0  0  0
   16.4184   -1.6896   -3.9203 C   0  0  0  0  0  0  0  0  0  0  0  0
   16.8581   -2.0050   -4.8605 H   0  0  0  0  0  0  0  0  0  0  0  0
   16.3373   -0.3236   -3.6234 C   0  0  0  0  0  0  0  0  0  0  0  0
   16.7076    0.4094   -4.3333 H   0  0  0  0  0  0  0  0  0  0  0  0
   15.7926    0.1123   -2.4062 C   0  0  0  0  0  0  0  0  0  0  0  0
   15.7109    1.5631   -2.0844 C   0  0  0  0  0  0  0  0  0  0  0  0
   15.9642    2.0361   -0.7851 C   0  0  0  0  0  0  0  0  0  0  0  0
   16.2371    1.3284   -0.0115 H   0  0  0  0  0  0  0  0  0  0  0  0
   15.8898    3.4065   -0.4835 C   0  0  0  0  0  0  0  0  0  0  0  0
   16.0932    3.7718    0.5152 H   0  0  0  0  0  0  0  0  0  0  0  0
   15.5495    4.3190   -1.4693 C   0  0  0  0  0  0  0  0  0  0  0  0
   15.4769    5.6621   -1.1768 N   0  0  0  0  0  0  0  0  0  0  0  0
   15.1821    6.3162   -1.9001 H   0  0  0  0  0  0  0  0  0  0  0  0
   15.6480    5.9676   -0.2211 H   0  0  0  0  0  0  0  0  0  0  0  0
   15.2834    3.8784   -2.7540 C   0  0  0  0  0  0  0  0  0  0  0  0
   15.0043    4.6151   -3.4960 H   0  0  0  0  0  0  0  0  0  0  0  0
   15.3730    2.5110   -3.0667 C   0  0  0  0  0  0  0  0  0  0  0  0
   15.1575    2.1714   -4.0726 H   0  0  0  0  0  0  0  0  0  0  0  0
   15.3269   -0.8630   -1.5034 C   0  0  0  0  0  0  0  0  0  0  0  0
   14.8957   -0.5266   -0.5677 H   0  0  0  0  0  0  0  0  0  0  0  0
   13.3022   -3.0229   -0.6052 C   0  0  0  0  0  0  0  0  0  0  0  0
   12.4319   -3.0891   -1.4700 O   0  0  0  0  0  0  0  0  0  0  0  0
   13.0251   -2.6750    0.7025 N   0  0  0  0  0  0  0  0  0  0  0  0
   11.7201   -2.3134    1.2623 C   0  0  0  0  0  0  0  0  0  0  0  0
   11.6949   -1.2626    1.5594 H   0  0  0  0  0  0  0  0  0  0  0  0
   10.9138   -2.4735    0.5419 H   0  0  0  0  0  0  0  0  0  0  0  0
   11.5028   -2.9167    2.1456 H   0  0  0  0  0  0  0  0  0  0  0  0
   14.2243   -2.6298    1.3653 C   0  0  0  0  0  0  0  0  0  0  0  0
   14.3953   -2.3315    2.6851 N   0  0  0  0  0  0  0  0  0  0  0  0
   15.3305   -2.3532    3.0927 H   0  0  0  0  0  0  0  0  0  0  0  0
   13.5818   -2.1266    3.2616 H   0  0  0  0  0  0  0  0  0  0  0  0
   15.2191   -2.9081    0.5932 N   0  0  0  0  0  4  0  0  0  0  0  0
   16.1888   -2.9101    0.9035 H   0  0  0  0  0  0  0  0  0  0  0  0
   14.3030   -5.5893   -1.7676 C   0  0  0  0  0  0  0  0  0  0  0  0
   13.3533   -5.2342   -2.1582 H   0  0  0  0  0  0  0  0  0  0  0  0
   14.6430   -6.9403   -1.9618 C   0  0  0  0  0  0  0  0  0  0  0  0
   13.9728   -7.6139   -2.4881 H   0  0  0  0  0  0  0  0  0  0  0  0
  1  2  1  0
  2  3  2  0
  3  4  1  0
  3  5  1  0
  5  6  1  0
  5  7  2  0
  7  8  1  0
  8  9  1  0
  9 10  2  0
 10 11  1  0
 10 12  1  0
 12 13  1  0
 12 14  2  0
 14 15  1  0
 14 16  1  0
 16 17  1  0
 17 18  2  0
 18 19  1  0
 18 20  1  0
 20 21  1  0
 20 22  2  0
 22 23  1  0
 23 24  1  0
 23 25  1  0
 22 26  1  0
 26 27  1  0
 26 28  2  0
 28 29  1  0
 16 30  2  0
 30 31  1  0
  8 32  1  0
 32 33  2  0
 32 34  1  0
 34 35  1  0
 35 36  1  0
 35 37  1  0
 35 38  1  0
 34 39  1  0
 39 40  1  0
 40 41  1  0
 40 42  1  0
 39 43  2  0
 43 44  1  0
  7 45  1  0
 45 46  1  0
 45 47  2  0
 47 48  1  0
 47  2  1  0
 43  8  1  0
 30  9  1  0
 28 17  1  0
M  CHG  1  43   1
M  END
>  <score>  (92) 
5.95921

$$$$

     RDKit          3D

 53 57  0  0  0  0  0  0  0  0999 V2000
   16.1217   -8.4864   -1.6115 H   0  0  0  0  0  0  0  0  0  0  0  0
   15.8544   -7.4414   -1.4718 C   0  0  0  0  0  0  0  0  0  0  0  0
   16.7298   -6.5828   -0.8022 C   0  0  0  0  0  0  0  0  0  0  0  0
   17.6733   -6.9566   -0.4173 H   0  0  0  0  0  0  0  0  0  0  0  0
   16.3894   -5.2402   -0.6085 C   0  0  0  0  0  0  0  0  0  0  0  0
   17.0681   -4.5893   -0.0660 H   0  0  0  0  0  0  0  0  0  0  0  0
   15.1706   -4.7201   -1.0739 C   0  0  0  0  0  0  0  0  0  0  0  0
   14.8119   -3.2576   -0.7842 C   0  0  0  0  0  0  0  0  0  0  0  0
   15.3864   -2.2534   -1.7792 C   0  0  0  0  0  0  0  0  0  0  0  0
   15.9425   -2.6443   -3.0089 C   0  0  0  0  0  0  0  0  0  0  0  0
   16.0037   -3.6963   -3.2623 H   0  0  0  0  0  0  0  0  0  0  0  0
   16.4193   -1.6897   -3.9159 C   0  0  0  0  0  0  0  0  0  0  0  0
   16.8531   -2.0019   -4.8592 H   0  0  0  0  0  0  0  0  0  0  0  0
   16.3388   -0.3266   -3.6141 C   0  0  0  0  0  0  0  0  0  0  0  0
   16.6992    0.4098   -4.3245 H   0  0  0  0  0  0  0  0  0  0  0  0
   15.7860    0.0917   -2.3968 C   0  0  0  0  0  0  0  0  0  0  0  0
   15.6737    1.5545   -2.0256 C   0  0  1  0  0  0  0  0  0  0  0  0
   15.2519    1.7430   -1.0373 H   0  0  0  0  0  0  0  0  0  0  0  0
   16.7561    2.5234   -2.4857 C   0  0  0  0  0  0  0  0  0  0  0  0
   17.5643    2.0888   -3.0716 H   0  0  0  0  0  0  0  0  0  0  0  0
   17.0624    3.3438   -1.8255 H   0  0  0  0  0  0  0  0  0  0  0  0
   15.3661    2.5845   -3.1112 C   0  0  2  0  0  0  0  0  0  0  0  0
   15.2672    2.2155   -4.1326 H   0  0  0  0  0  0  0  0  0  0  0  0
   14.4809    3.7607   -2.8005 C   0  0  0  0  0  0  0  0  0  0  0  0
   13.6143    4.2526   -3.7867 C   0  0  0  0  0  0  0  0  0  0  0  0
   13.6043    3.7805   -4.7623 H   0  0  0  0  0  0  0  0  0  0  0  0
   12.7611    5.3307   -3.5218 C   0  0  0  0  0  0  0  0  0  0  0  0
   12.1101    5.7138   -4.3024 H   0  0  0  0  0  0  0  0  0  0  0  0
   12.7795    5.9310   -2.2594 C   0  0  0  0  0  0  0  0  0  0  0  0
   12.1446    6.7910   -2.0593 H   0  0  0  0  0  0  0  0  0  0  0  0
   13.6879    5.4704   -1.2948 C   0  0  0  0  0  0  0  0  0  0  0  0
   13.8227    5.9512   -0.3362 H   0  0  0  0  0  0  0  0  0  0  0  0
   14.5065    4.3804   -1.5494 C   0  0  0  0  0  0  0  0  0  0  0  0
   15.1663    4.0346   -0.7616 H   0  0  0  0  0  0  0  0  0  0  0  0
   15.3179   -0.8753   -1.4979 C   0  0  0  0  0  0  0  0  0  0  0  0
   14.8912   -0.5380   -0.5578 H   0  0  0  0  0  0  0  0  0  0  0  0
   13.2993   -3.0270   -0.6048 C   0  0  0  0  0  0  0  0  0  0  0  0
   12.4295   -3.0888   -1.4728 O   0  0  0  0  0  0  0  0  0  0  0  0
   13.0243   -2.6745    0.7028 N   0  0  0  0  0  0  0  0  0  0  0  0
   11.7175   -2.3128    1.2635 C   0  0  0  0  0  0  0  0  0  0  0  0
   11.6962   -1.2586    1.5595 H   0  0  0  0  0  0  0  0  0  0  0  0
   10.9128   -2.4751    0.5384 H   0  0  0  0  0  0  0  0  0  0  0  0
   11.5028   -2.9199    2.1485 H   0  0  0  0  0  0  0  0  0  0  0  0
   14.2260   -2.6295    1.3646 C   0  0  0  0  0  0  0  0  0  0  0  0
   14.3950   -2.3319    2.6869 N   0  0  0  0  0  0  0  0  0  0  0  0
   13.5803   -2.1260    3.2639 H   0  0  0  0  0  0  0  0  0  0  0  0
   15.3311   -2.3537    3.0919 H   0  0  0  0  0  0  0  0  0  0  0  0
   15.2215   -2.9084    0.5935 N   0  0  0  0  0  4  0  0  0  0  0  0
   16.1919   -2.9086    0.9057 H   0  0  0  0  0  0  0  0  0  0  0  0
   14.3027   -5.5914   -1.7688 C   0  0  0  0  0  0  0  0  0  0  0  0
   13.3535   -5.2349   -2.1586 H   0  0  0  0  0  0  0  0  0  0  0  0
   14.6430   -6.9417   -1.9614 C   0  0  0  0  0  0  0  0  0  0  0  0
   13.9721   -7.6140   -2.4884 H   0  0  0  0  0  0  0  0  0  0  0  0
  1  2  1  0
  2  3  2  0
  3  4  1  0
  3  5  1  0
  5  6  1  0
  5  7  2  0
  7  8  1  0
  8  9  1  0
  9 10  2  0
 10 11  1  0
 10 12  1  0
 12 13  1  0
 12 14  2  0
 14 15  1  0
 14 16  1  0
 16 17  1  0
 17 18  1  1
 17 19  1  0
 19 20  1  0
 19 21  1  0
 19 22  1  0
 22 23  1  6
 22 24  1  0
 24 25  2  0
 25 26  1  0
 25 27  1  0
 27 28  1  0
 27 29  2  0
 29 30  1  0
 29 31  1  0
 31 32  1  0
 31 33  2  0
 33 34  1  0
 16 35  2  0
 35 36  1  0
  8 37  1  0
 37 38  2  0
 37 39  1  0
 39 40  1  0
 40 41  1  0
 40 42  1  0
 40 43  1  0
 39 44  1  0
 44 45  1  0
 45 46  1  0
 45 47  1  0
 44 48  2  0
 48 49  1  0
  7 50  1  0
 50 51  1  0
 50 52  2  0
 52 53  1  0
 52  2  1  0
 48  8  1  0
 35  9  1  0
 22 17  1  0
 33 24  1  0
M  CHG  1  48   1
M  END
>  <score>  (93) 
5.94838

$$$$

     RDKit          3D

 46 49  0  0  0  0  0  0  0  0999 V2000
   16.1213   -8.4864   -1.6115 H   0  0  0  0  0  0  0  0  0  0  0  0
   15.8540   -7.4407   -1.4721 C   0  0  0  0  0  0  0  0  0  0  0  0
   16.7297   -6.5824   -0.8027 C   0  0  0  0  0  0  0  0  0  0  0  0
   17.6730   -6.9562   -0.4167 H   0  0  0  0  0  0  0  0  0  0  0  0
   16.3911   -5.2389   -0.6095 C   0  0  0  0  0  0  0  0  0  0  0  0
   17.0679   -4.5877   -0.0644 H   0  0  0  0  0  0  0  0  0  0  0  0
   15.1733   -4.7171   -1.0745 C   0  0  0  0  0  0  0  0  0  0  0  0
   14.8143   -3.2535   -0.7857 C   0  0  0  0  0  0  0  0  0  0  0  0
   15.3894   -2.2457   -1.7801 C   0  0  0  0  0  0  0  0  0  0  0  0
   15.9418   -2.6408   -3.0083 C   0  0  0  0  0  0  0  0  0  0  0  0
   16.0031   -3.6940   -3.2588 H   0  0  0  0  0  0  0  0  0  0  0  0
   16.4186   -1.6907   -3.9197 C   0  0  0  0  0  0  0  0  0  0  0  0
   16.8575   -2.0059   -4.8605 H   0  0  0  0  0  0  0  0  0  0  0  0
   16.3376   -0.3258   -3.6260 C   0  0  0  0  0  0  0  0  0  0  0  0
   16.7102    0.4051   -4.3388 H   0  0  0  0  0  0  0  0  0  0  0  0
   15.7941    0.1061   -2.4086 C   0  0  0  0  0  0  0  0  0  0  0  0
   15.7160    1.5504   -2.0897 C   0  0  0  0  0  0  0  0  0  0  0  0
   15.9674    2.0182   -0.7898 C   0  0  0  0  0  0  0  0  0  0  0  0
   16.2390    1.3254   -0.0059 H   0  0  0  0  0  0  0  0  0  0  0  0
   15.9019    3.3785   -0.4731 C   0  0  0  0  0  0  0  0  0  0  0  0
   16.1574    3.8176    0.7779 F   0  0  0  0  0  0  0  0  0  0  0  0
   15.5559    4.2949   -1.4550 C   0  0  0  0  0  0  0  0  0  0  0  0
   15.4822    5.3523   -1.2289 H   0  0  0  0  0  0  0  0  0  0  0  0
   15.2654    3.8664   -2.7383 C   0  0  0  0  0  0  0  0  0  0  0  0
   14.8301    4.8004   -3.6119 F   0  0  0  0  0  0  0  0  0  0  0  0
   15.3746    2.5034   -3.0667 C   0  0  0  0  0  0  0  0  0  0  0  0
   15.1521    2.1766   -4.0758 H   0  0  0  0  0  0  0  0  0  0  0  0
   15.3286   -0.8644   -1.5015 C   0  0  0  0  0  0  0  0  0  0  0  0
   14.8953   -0.5304   -0.5643 H   0  0  0  0  0  0  0  0  0  0  0  0
   13.2995   -3.0296   -0.6036 C   0  0  0  0  0  0  0  0  0  0  0  0
   12.4313   -3.0868   -1.4709 O   0  0  0  0  0  0  0  0  0  0  0  0
   13.0243   -2.6755    0.7020 N   0  0  0  0  0  0  0  0  0  0  0  0
   11.7183   -2.3130    1.2635 C   0  0  0  0  0  0  0  0  0  0  0  0
   11.5028   -2.9188    2.1479 H   0  0  0  0  0  0  0  0  0  0  0  0
   11.6953   -1.2599    1.5601 H   0  0  0  0  0  0  0  0  0  0  0  0
   10.9123   -2.4742    0.5399 H   0  0  0  0  0  0  0  0  0  0  0  0
   14.2266   -2.6292    1.3646 C   0  0  0  0  0  0  0  0  0  0  0  0
   14.3961   -2.3308    2.6869 N   0  0  0  0  0  0  0  0  0  0  0  0
   15.3313   -2.3537    3.0915 H   0  0  0  0  0  0  0  0  0  0  0  0
   13.5812   -2.1266    3.2626 H   0  0  0  0  0  0  0  0  0  0  0  0
   15.2220   -2.9050    0.5922 N   0  0  0  0  0  4  0  0  0  0  0  0
   16.1898   -2.9143    0.9060 H   0  0  0  0  0  0  0  0  0  0  0  0
   14.3040   -5.5891   -1.7678 C   0  0  0  0  0  0  0  0  0  0  0  0
   13.3540   -5.2330   -2.1568 H   0  0  0  0  0  0  0  0  0  0  0  0
   14.6433   -6.9399   -1.9614 C   0  0  0  0  0  0  0  0  0  0  0  0
   13.9720   -7.6124   -2.4882 H   0  0  0  0  0  0  0  0  0  0  0  0
  1  2  1  0
  2  3  2  0
  3  4  1  0
  3  5  1  0
  5  6  1  0
  5  7  2  0
  7  8  1  0
  8  9  1  0
  9 10  2  0
 10 11  1  0
 10 12  1  0
 12 13  1  0
 12 14  2  0
 14 15  1  0
 14 16  1  0
 16 17  1  0
 17 18  2  0
 18 19  1  0
 18 20  1  0
 20 21  1  0
 20 22  2  0
 22 23  1  0
 22 24  1  0
 24 25  1  0
 24 26  2  0
 26 27  1  0
 16 28  2  0
 28 29  1  0
  8 30  1  0
 30 31  2  0
 30 32  1  0
 32 33  1  0
 33 34  1  0
 33 35  1  0
 33 36  1  0
 32 37  1  0
 37 38  1  0
 38 39  1  0
 38 40  1  0
 37 41  2  0
 41 42  1  0
  7 43  1  0
 43 44  1  0
 43 45  2  0
 45 46  1  0
 45  2  1  0
 41  8  1  0
 28  9  1  0
 26 17  1  0
M  CHG  1  41   1
M  END
>  <score>  (94) 
5.94478

$$$$

     RDKit          3D

 50 53  0  0  0  0  0  0  0  0999 V2000
   16.1585   -8.4798   -1.7488 H   0  0  0  0  0  0  0  0  0  0  0  0
   15.8991   -7.4490   -1.5327 C   0  0  0  0  0  0  0  0  0  0  0  0
   16.7897   -6.6398   -0.8177 C   0  0  0  0  0  0  0  0  0  0  0  0
   17.7526   -7.0238   -0.4956 H   0  0  0  0  0  0  0  0  0  0  0  0
   16.4419   -5.3210   -0.5161 C   0  0  0  0  0  0  0  0  0  0  0  0
   17.1361   -4.6807    0.0225 H   0  0  0  0  0  0  0  0  0  0  0  0
   15.2016   -4.8054   -0.9158 C   0  0  0  0  0  0  0  0  0  0  0  0
   14.8389   -3.3647   -0.6336 C   0  0  0  0  0  0  0  0  0  0  0  0
   15.3800   -2.4658   -1.7257 C   0  0  0  0  0  0  0  0  0  0  0  0
   15.9371   -2.9640   -2.9224 C   0  0  0  0  0  0  0  0  0  0  0  0
   15.9863   -4.0354   -3.1170 H   0  0  0  0  0  0  0  0  0  0  0  0
   16.4356   -2.0725   -3.8767 C   0  0  0  0  0  0  0  0  0  0  0  0
   16.8629   -2.4276   -4.8034 H   0  0  0  0  0  0  0  0  0  0  0  0
   16.4025   -0.6975   -3.6390 C   0  0  0  0  0  0  0  0  0  0  0  0
   16.8076   -0.0117   -4.3764 H   0  0  0  0  0  0  0  0  0  0  0  0
   15.8365   -0.1889   -2.4616 C   0  0  0  0  0  0  0  0  0  0  0  0
   15.8058    1.2519   -2.2011 C   0  0  0  0  0  0  0  0  0  0  0  0
   14.7366    1.8574   -1.5145 C   0  0  0  0  0  0  0  0  0  0  0  0
   13.9150    1.2592   -1.1268 H   0  0  0  0  0  0  0  0  0  0  0  0
   14.7201    3.2459   -1.3396 C   0  0  0  0  0  0  0  0  0  0  0  0
   13.8911    3.7431   -0.8414 H   0  0  0  0  0  0  0  0  0  0  0  0
   15.7855    4.0285   -1.8103 C   0  0  0  0  0  0  0  0  0  0  0  0
   15.8440    5.3752   -1.6290 O   0  0  0  0  0  0  0  0  0  0  0  0
   14.9974    5.8715   -0.5964 C   0  0  0  0  0  0  0  0  0  0  0  0
   13.7527    6.0845   -1.0704 F   0  0  0  0  0  0  0  0  0  0  0  0
   15.5147    7.0363   -0.2105 F   0  0  0  0  0  0  0  0  0  0  0  0
   14.9491    5.0656    0.4955 F   0  0  0  0  0  0  0  0  0  0  0  0
   16.8578    3.4283   -2.4577 C   0  0  0  0  0  0  0  0  0  0  0  0
   17.6776    4.0530   -2.8012 H   0  0  0  0  0  0  0  0  0  0  0  0
   16.8711    2.0453   -2.6446 C   0  0  0  0  0  0  0  0  0  0  0  0
   17.7195    1.5591   -3.1140 H   0  0  0  0  0  0  0  0  0  0  0  0
   15.3039   -1.0836   -1.5331 C   0  0  0  0  0  0  0  0  0  0  0  0
   14.8576   -0.7161   -0.6146 H   0  0  0  0  0  0  0  0  0  0  0  0
   13.3286   -3.1330   -0.4427 C   0  0  0  0  0  0  0  0  0  0  0  0
   12.4380   -3.3135   -1.2701 O   0  0  0  0  0  0  0  0  0  0  0  0
   13.0906   -2.6333    0.8238 N   0  0  0  0  0  0  0  0  0  0  0  0
   11.7847   -2.2711    1.3793 C   0  0  0  0  0  0  0  0  0  0  0  0
   11.5646   -2.8608    2.2757 H   0  0  0  0  0  0  0  0  0  0  0  0
   11.7502   -1.2089    1.6451 H   0  0  0  0  0  0  0  0  0  0  0  0
   10.9880   -2.4591    0.6515 H   0  0  0  0  0  0  0  0  0  0  0  0
   14.3071   -2.5461    1.4613 C   0  0  0  0  0  0  0  0  0  0  0  0
   14.5017   -2.1088    2.7413 N   0  0  0  0  0  0  0  0  0  0  0  0
   13.6902   -2.0691    3.3560 H   0  0  0  0  0  0  0  0  0  0  0  0
   15.4206   -2.2602    3.1516 H   0  0  0  0  0  0  0  0  0  0  0  0
   15.2876   -2.9376    0.7128 N   0  0  0  0  0  4  0  0  0  0  0  0
   16.2613   -2.9560    1.0156 H   0  0  0  0  0  0  0  0  0  0  0  0
   14.3378   -5.6056   -1.6780 C   0  0  0  0  0  0  0  0  0  0  0  0
   13.4042   -5.1906   -2.0478 H   0  0  0  0  0  0  0  0  0  0  0  0
   14.6803   -6.9258   -1.9781 C   0  0  0  0  0  0  0  0  0  0  0  0
   13.9995   -7.5377   -2.5611 H   0  0  0  0  0  0  0  0  0  0  0  0
  1  2  1  0
  2  3  2  0
  3  4  1  0
  3  5  1  0
  5  6  1  0
  5  7  2  0
  7  8  1  0
  8  9  1  0
  9 10  2  0
 10 11  1  0
 10 12  1  0
 12 13  1  0
 12 14  2  0
 14 15  1  0
 14 16  1  0
 16 17  1  0
 17 18  2  0
 18 19  1  0
 18 20  1  0
 20 21  1  0
 20 22  2  0
 22 23  1  0
 23 24  1  0
 24 25  1  0
 24 26  1  0
 24 27  1  0
 22 28  1  0
 28 29  1  0
 28 30  2  0
 30 31  1  0
 16 32  2  0
 32 33  1  0
  8 34  1  0
 34 35  2  0
 34 36  1  0
 36 37  1  0
 37 38  1  0
 37 39  1  0
 37 40  1  0
 36 41  1  0
 41 42  1  0
 42 43  1  0
 42 44  1  0
 41 45  2  0
 45 46  1  0
  7 47  1  0
 47 48  1  0
 47 49  2  0
 49 50  1  0
 49  2  1  0
 45  8  1  0
 32  9  1  0
 30 17  1  0
M  CHG  1  45   1
M  END
>  <score>  (95) 
5.94363

$$$$

     RDKit          3D

 52 55  0  0  0  0  0  0  0  0999 V2000
   16.3060   -8.8197   -1.8313 H   0  0  0  0  0  0  0  0  0  0  0  0
   15.9890   -7.8378   -1.5011 C   0  0  0  0  0  0  0  0  0  0  0  0
   16.8387   -7.0582   -0.7096 C   0  0  0  0  0  0  0  0  0  0  0  0
   17.8174   -7.4305   -0.4247 H   0  0  0  0  0  0  0  0  0  0  0  0
   16.4418   -5.7804   -0.3092 C   0  0  0  0  0  0  0  0  0  0  0  0
   17.1191   -5.1527    0.2634 H   0  0  0  0  0  0  0  0  0  0  0  0
   15.1824   -5.2854   -0.6714 C   0  0  0  0  0  0  0  0  0  0  0  0
   14.8087   -3.8431   -0.4041 C   0  0  0  0  0  0  0  0  0  0  0  0
   15.2687   -3.0018   -1.5912 C   0  0  0  0  0  0  0  0  0  0  0  0
   15.6713   -3.5830   -2.8040 C   0  0  0  0  0  0  0  0  0  0  0  0
   15.7270   -4.6616   -2.9002 H   0  0  0  0  0  0  0  0  0  0  0  0
   15.9848   -2.7942   -3.9097 C   0  0  0  0  0  0  0  0  0  0  0  0
   16.2590   -3.2751   -4.8303 H   0  0  0  0  0  0  0  0  0  0  0  0
   15.9557   -1.4047   -3.8309 C   0  0  0  0  0  0  0  0  0  0  0  0
   16.2270   -0.7962   -4.6883 H   0  0  0  0  0  0  0  0  0  0  0  0
   15.6325   -0.8041   -2.6169 C   0  0  0  0  0  0  0  0  0  0  0  0
   15.7331    0.6333   -2.4202 C   0  0  0  0  0  0  0  0  0  0  0  0
   16.2117    1.0478   -1.1754 C   0  0  0  0  0  0  0  0  0  0  0  0
   16.5332    0.3146   -0.4397 H   0  0  0  0  0  0  0  0  0  0  0  0
   16.2279    2.3858   -0.8446 C   0  0  0  0  0  0  0  0  0  0  0  0
   16.5732    2.6728    0.1430 H   0  0  0  0  0  0  0  0  0  0  0  0
   15.7640    3.3527   -1.7446 C   0  0  0  0  0  0  0  0  0  0  0  0
   15.7451    4.7456   -1.3107 C   0  0  0  0  0  0  0  0  0  0  0  0
   15.2455    5.6090   -2.0329 O   0  0  0  0  0  0  0  0  0  0  0  0
   16.3061    4.9676   -0.1011 O   0  0  0  0  0  0  0  0  0  0  0  0
   15.6416    5.9551    0.6755 C   0  0  0  0  0  0  0  0  0  0  0  0
   14.5952    5.6789    0.8415 H   0  0  0  0  0  0  0  0  0  0  0  0
   15.6928    6.9231    0.1687 H   0  0  0  0  0  0  0  0  0  0  0  0
   16.1157    6.0465    1.6527 H   0  0  0  0  0  0  0  0  0  0  0  0
   15.2889    2.9399   -2.9997 C   0  0  0  0  0  0  0  0  0  0  0  0
   14.8667    3.6712   -3.6775 H   0  0  0  0  0  0  0  0  0  0  0  0
   15.3020    1.5858   -3.3595 C   0  0  0  0  0  0  0  0  0  0  0  0
   14.9206    1.2755   -4.3319 H   0  0  0  0  0  0  0  0  0  0  0  0
   15.2524   -1.6080   -1.5257 C   0  0  0  0  0  0  0  0  0  0  0  0
   14.9490   -1.1323   -0.5997 H   0  0  0  0  0  0  0  0  0  0  0  0
   13.3024   -3.6173   -0.1614 C   0  0  0  0  0  0  0  0  0  0  0  0
   12.3853   -3.8823   -0.9336 O   0  0  0  0  0  0  0  0  0  0  0  0
   13.1171   -2.9699    1.0456 N   0  0  0  0  0  0  0  0  0  0  0  0
   11.9030   -2.2961    1.5041 C   0  0  0  0  0  0  0  0  0  0  0  0
   12.0876   -1.2215    1.6364 H   0  0  0  0  0  0  0  0  0  0  0  0
   11.0906   -2.4152    0.7759 H   0  0  0  0  0  0  0  0  0  0  0  0
   11.5772   -2.7123    2.4656 H   0  0  0  0  0  0  0  0  0  0  0  0
   14.3646   -2.8051    1.5981 C   0  0  0  0  0  0  0  0  0  0  0  0
   14.5811   -2.1248    2.7545 N   0  0  0  0  0  0  0  0  0  0  0  0
   15.4948   -2.2107    3.1915 H   0  0  0  0  0  0  0  0  0  0  0  0
   13.7769   -1.8808    3.3271 H   0  0  0  0  0  0  0  0  0  0  0  0
   15.3083   -3.3332    0.8897 N   0  0  0  0  0  4  0  0  0  0  0  0
   16.2991   -3.2776    1.1357 H   0  0  0  0  0  0  0  0  0  0  0  0
   14.3361   -6.0744   -1.4627 C   0  0  0  0  0  0  0  0  0  0  0  0
   13.3804   -5.6694   -1.7839 H   0  0  0  0  0  0  0  0  0  0  0  0
   14.7375   -7.3434   -1.8820 C   0  0  0  0  0  0  0  0  0  0  0  0
   14.0823   -7.9270   -2.5201 H   0  0  0  0  0  0  0  0  0  0  0  0
  1  2  1  0
  2  3  2  0
  3  4  1  0
  3  5  1  0
  5  6  1  0
  5  7  2  0
  7  8  1  0
  8  9  1  0
  9 10  2  0
 10 11  1  0
 10 12  1  0
 12 13  1  0
 12 14  2  0
 14 15  1  0
 14 16  1  0
 16 17  1  0
 17 18  2  0
 18 19  1  0
 18 20  1  0
 20 21  1  0
 20 22  2  0
 22 23  1  0
 23 24  2  0
 23 25  1  0
 25 26  1  0
 26 27  1  0
 26 28  1  0
 26 29  1  0
 22 30  1  0
 30 31  1  0
 30 32  2  0
 32 33  1  0
 16 34  2  0
 34 35  1  0
  8 36  1  0
 36 37  2  0
 36 38  1  0
 38 39  1  0
 39 40  1  0
 39 41  1  0
 39 42  1  0
 38 43  1  0
 43 44  1  0
 44 45  1  0
 44 46  1  0
 43 47  2  0
 47 48  1  0
  7 49  1  0
 49 50  1  0
 49 51  2  0
 51 52  1  0
 51  2  1  0
 47  8  1  0
 34  9  1  0
 32 17  1  0
M  CHG  1  47   1
M  END
>  <score>  (96) 
5.94144

$$$$

     RDKit          3D

 52 55  0  0  0  0  0  0  0  0999 V2000
   12.2074  -14.2454    1.2174 H   0  0  0  0  0  0  0  0  0  0  0  0
   12.5472  -13.3293    0.7534 C   0  0  0  0  0  0  0  0  0  0  0  0
   11.7246  -12.6595   -0.1542 C   0  0  0  0  0  0  0  0  0  0  0  0
   10.7428  -13.0586   -0.3976 H   0  0  0  0  0  0  0  0  0  0  0  0
   12.1541  -11.4478   -0.7070 C   0  0  0  0  0  0  0  0  0  0  0  0
   11.5142  -10.8994   -1.3849 H   0  0  0  0  0  0  0  0  0  0  0  0
   13.3990  -10.9087   -0.3637 C   0  0  0  0  0  0  0  0  0  0  0  0
   13.8149   -9.6672   -0.8384 N   0  0  0  0  0  0  0  0  0  0  0  0
   14.3695   -9.0862   -0.2274 H   0  0  0  0  0  0  0  0  0  0  0  0
   13.5216   -9.1787   -2.0950 C   0  0  0  0  0  0  0  0  0  0  0  0
   13.1617  -10.2234   -3.3191 S   0  0  0  0  0  0  0  0  0  0  0  0
   13.6981   -7.8548   -2.4435 N   0  0  0  0  0  0  0  0  0  0  0  0
   13.4251   -7.6379   -3.3941 H   0  0  0  0  0  0  0  0  0  0  0  0
   14.5926   -6.9836   -1.8359 C   0  0  0  0  0  0  0  0  0  0  0  0
   15.8080   -7.4709   -1.3672 C   0  0  0  0  0  0  0  0  0  0  0  0
   16.0348   -8.5231   -1.4928 H   0  0  0  0  0  0  0  0  0  0  0  0
   16.7286   -6.6094   -0.7676 C   0  0  0  0  0  0  0  0  0  0  0  0
   17.6894   -6.9812   -0.4263 H   0  0  0  0  0  0  0  0  0  0  0  0
   16.4067   -5.2608   -0.6028 C   0  0  0  0  0  0  0  0  0  0  0  0
   17.1177   -4.6070   -0.1052 H   0  0  0  0  0  0  0  0  0  0  0  0
   15.1821   -4.7431   -1.0469 C   0  0  0  0  0  0  0  0  0  0  0  0
   14.8296   -3.2867   -0.7502 C   0  0  0  0  0  0  0  0  0  0  0  0
   15.3876   -2.2821   -1.7541 C   0  0  0  0  0  0  0  0  0  0  0  0
   15.9363   -2.6794   -2.9857 C   0  0  0  0  0  0  0  0  0  0  0  0
   15.9923   -3.7335   -3.2377 H   0  0  0  0  0  0  0  0  0  0  0  0
   16.4111   -1.7293   -3.8991 C   0  0  0  0  0  0  0  0  0  0  0  0
   16.8303   -2.0464   -4.8462 H   0  0  0  0  0  0  0  0  0  0  0  0
   16.3482   -0.3678   -3.6006 C   0  0  0  0  0  0  0  0  0  0  0  0
   16.7270    0.3665   -4.3069 H   0  0  0  0  0  0  0  0  0  0  0  0
   15.7933    0.0401   -2.3872 C   0  0  0  0  0  0  0  0  0  0  0  0
   15.7347    1.0955   -2.1499 H   0  0  0  0  0  0  0  0  0  0  0  0
   15.3118   -0.9054   -1.4766 C   0  0  0  0  0  0  0  0  0  0  0  0
   14.8752   -0.5647   -0.5417 H   0  0  0  0  0  0  0  0  0  0  0  0
   13.3164   -3.0859   -0.5658 C   0  0  0  0  0  0  0  0  0  0  0  0
   12.4492   -3.2516   -1.4216 O   0  0  0  0  0  0  0  0  0  0  0  0
   13.0537   -2.6882    0.7297 N   0  0  0  0  0  0  0  0  0  0  0  0
   11.7541   -2.3143    1.2848 C   0  0  0  0  0  0  0  0  0  0  0  0
   10.9518   -2.4794    0.5553 H   0  0  0  0  0  0  0  0  0  0  0  0
   11.5342   -2.9111    2.1770 H   0  0  0  0  0  0  0  0  0  0  0  0
   11.7513   -1.2548    1.5638 H   0  0  0  0  0  0  0  0  0  0  0  0
   14.2636   -2.6098    1.3809 C   0  0  0  0  0  0  0  0  0  0  0  0
   14.4482   -2.2322    2.6785 N   0  0  0  0  0  0  0  0  0  0  0  0
   15.3805   -2.2961    3.0828 H   0  0  0  0  0  0  0  0  0  0  0  0
   13.6350   -2.1133    3.2789 H   0  0  0  0  0  0  0  0  0  0  0  0
   15.2562   -2.9422    0.6239 N   0  0  0  0  0  4  0  0  0  0  0  0
   16.2227   -3.0080    0.9477 H   0  0  0  0  0  0  0  0  0  0  0  0
   14.2913   -5.6195   -1.7091 C   0  0  0  0  0  0  0  0  0  0  0  0
   13.3409   -5.2587   -2.0855 H   0  0  0  0  0  0  0  0  0  0  0  0
   14.2067  -11.5852    0.5376 C   0  0  0  0  0  0  0  0  0  0  0  0
   15.1520  -11.1453    0.8311 H   0  0  0  0  0  0  0  0  0  0  0  0
   13.7954  -12.7992    1.0937 C   0  0  0  0  0  0  0  0  0  0  0  0
   14.4225  -13.2984    1.8254 H   0  0  0  0  0  0  0  0  0  0  0  0
  1  2  1  0
  2  3  2  0
  3  4  1  0
  3  5  1  0
  5  6  1  0
  5  7  2  0
  7  8  1  0
  8  9  1  0
  8 10  1  0
 10 11  2  0
 10 12  1  0
 12 13  1  0
 12 14  1  0
 14 15  2  0
 15 16  1  0
 15 17  1  0
 17 18  1  0
 17 19  2  0
 19 20  1  0
 19 21  1  0
 21 22  1  0
 22 23  1  0
 23 24  2  0
 24 25  1  0
 24 26  1  0
 26 27  1  0
 26 28  2  0
 28 29  1  0
 28 30  1  0
 30 31  1  0
 30 32  2  0
 32 33  1  0
 22 34  1  0
 34 35  2  0
 34 36  1  0
 36 37  1  0
 37 38  1  0
 37 39  1  0
 37 40  1  0
 36 41  1  0
 41 42  1  0
 42 43  1  0
 42 44  1  0
 41 45  2  0
 45 46  1  0
 21 47  2  0
 47 48  1  0
  7 49  1  0
 49 50  1  0
 49 51  2  0
 51 52  1  0
 51  2  1  0
 47 14  1  0
 45 22  1  0
 32 23  1  0
M  CHG  1  45   1
M  END
>  <score>  (97) 
5.93817

$$$$

     RDKit          3D

 53 56  0  0  0  0  0  0  0  0999 V2000
   16.0969   -8.4292   -1.6562 H   0  0  0  0  0  0  0  0  0  0  0  0
   15.8538   -7.3812   -1.5082 C   0  0  0  0  0  0  0  0  0  0  0  0
   16.7592   -6.5572   -0.8288 C   0  0  0  0  0  0  0  0  0  0  0  0
   17.6941   -6.9465   -0.4286 H   0  0  0  0  0  0  0  0  0  0  0  0
   16.4451   -5.2132   -0.6289 C   0  0  0  0  0  0  0  0  0  0  0  0
   17.1243   -4.5729   -0.0751 H   0  0  0  0  0  0  0  0  0  0  0  0
   15.2279   -4.6770   -1.0730 C   0  0  0  0  0  0  0  0  0  0  0  0
   14.8889   -3.2370   -0.7404 C   0  0  0  0  0  0  0  0  0  0  0  0
   15.4301   -2.2402   -1.7557 C   0  0  0  0  0  0  0  0  0  0  0  0
   15.9775   -2.6470   -2.9864 C   0  0  0  0  0  0  0  0  0  0  0  0
   16.0380   -3.7022   -3.2308 H   0  0  0  0  0  0  0  0  0  0  0  0
   16.4351   -1.7028   -3.9155 C   0  0  0  0  0  0  0  0  0  0  0  0
   16.8550   -2.0194   -4.8646 H   0  0  0  0  0  0  0  0  0  0  0  0
   16.3422   -0.3389   -3.6329 C   0  0  0  0  0  0  0  0  0  0  0  0
   16.6869    0.3932   -4.3587 H   0  0  0  0  0  0  0  0  0  0  0  0
   15.7779    0.0891   -2.4249 C   0  0  0  0  0  0  0  0  0  0  0  0
   15.6268    1.5557   -2.1194 C   0  0  0  0  0  0  0  0  0  0  0  0
   15.7947    1.7300   -1.0514 H   0  0  0  0  0  0  0  0  0  0  0  0
   16.3756    2.1339   -2.6691 H   0  0  0  0  0  0  0  0  0  0  0  0
   14.2470    2.0188   -2.5085 C   0  0  0  0  0  0  0  0  0  0  0  0
   13.1976    2.0131   -1.5799 C   0  0  0  0  0  0  0  0  0  0  0  0
   13.3828    1.6774   -0.5650 H   0  0  0  0  0  0  0  0  0  0  0  0
   11.9154    2.4265   -1.9535 C   0  0  0  0  0  0  0  0  0  0  0  0
   11.1037    2.4140   -1.2306 H   0  0  0  0  0  0  0  0  0  0  0  0
   11.6840    2.8537   -3.2671 C   0  0  0  0  0  0  0  0  0  0  0  0
   10.7010    3.1818   -3.5798 H   0  0  0  0  0  0  0  0  0  0  0  0
   12.7205    2.8649   -4.2125 C   0  0  0  0  0  0  0  0  0  0  0  0
   12.5515    3.2687   -5.5138 O   0  0  0  0  0  0  0  0  0  0  0  0
   11.2236    3.6688   -5.8755 C   0  0  0  0  0  0  0  0  0  0  0  0
   11.1992    3.9733   -6.9251 H   0  0  0  0  0  0  0  0  0  0  0  0
   10.8955    4.5130   -5.2609 H   0  0  0  0  0  0  0  0  0  0  0  0
   10.5222    2.8399   -5.7375 H   0  0  0  0  0  0  0  0  0  0  0  0
   13.9904    2.4399   -3.8195 C   0  0  0  0  0  0  0  0  0  0  0  0
   14.7874    2.4278   -4.5528 H   0  0  0  0  0  0  0  0  0  0  0  0
   15.3229   -0.8630   -1.5037 C   0  0  0  0  0  0  0  0  0  0  0  0
   14.8699   -0.5224   -0.5778 H   0  0  0  0  0  0  0  0  0  0  0  0
   13.3790   -3.0025   -0.5128 C   0  0  0  0  0  0  0  0  0  0  0  0
   12.4584   -3.1203   -1.3218 O   0  0  0  0  0  0  0  0  0  0  0  0
   13.1804   -2.6181    0.7932 N   0  0  0  0  0  0  0  0  0  0  0  0
   11.8966   -2.3008    1.4119 C   0  0  0  0  0  0  0  0  0  0  0  0
   11.6899   -1.2281    1.3104 H   0  0  0  0  0  0  0  0  0  0  0  0
   11.1026   -2.8711    0.9150 H   0  0  0  0  0  0  0  0  0  0  0  0
   11.8703   -2.5591    2.4781 H   0  0  0  0  0  0  0  0  0  0  0  0
   14.4015   -2.6802    1.4263 C   0  0  0  0  0  0  0  0  0  0  0  0
   14.5989   -2.4953    2.7653 N   0  0  0  0  0  0  0  0  0  0  0  0
   13.9545   -1.8809    3.2569 H   0  0  0  0  0  0  0  0  0  0  0  0
   15.5641   -2.5356    3.0814 H   0  0  0  0  0  0  0  0  0  0  0  0
   15.3783   -2.9566    0.6254 N   0  0  0  0  0  4  0  0  0  0  0  0
   16.3162   -3.2006    0.9575 H   0  0  0  0  0  0  0  0  0  0  0  0
   14.3333   -5.5061   -1.7706 C   0  0  0  0  0  0  0  0  0  0  0  0
   13.3815   -5.1089   -2.1116 H   0  0  0  0  0  0  0  0  0  0  0  0
   14.6422   -6.8574   -1.9872 C   0  0  0  0  0  0  0  0  0  0  0  0
   13.9337   -7.5028   -2.5018 H   0  0  0  0  0  0  0  0  0  0  0  0
  1  2  1  0
  2  3  2  0
  3  4  1  0
  3  5  1  0
  5  6  1  0
  5  7  2  0
  7  8  1  0
  8  9  1  0
  9 10  2  0
 10 11  1  0
 10 12  1  0
 12 13  1  0
 12 14  2  0
 14 15  1  0
 14 16  1  0
 16 17  1  0
 17 18  1  0
 17 19  1  0
 17 20  1  0
 20 21  2  0
 21 22  1  0
 21 23  1  0
 23 24  1  0
 23 25  2  0
 25 26  1  0
 25 27  1  0
 27 28  1  0
 28 29  1  0
 29 30  1  0
 29 31  1  0
 29 32  1  0
 27 33  2  0
 33 34  1  0
 16 35  2  0
 35 36  1  0
  8 37  1  0
 37 38  2  0
 37 39  1  0
 39 40  1  0
 40 41  1  0
 40 42  1  0
 40 43  1  0
 39 44  1  0
 44 45  1  0
 45 46  1  0
 45 47  1  0
 44 48  2  0
 48 49  1  0
  7 50  1  0
 50 51  1  0
 50 52  2  0
 52 53  1  0
 52  2  1  0
 48  8  1  0
 35  9  1  0
 33 20  1  0
M  CHG  1  48   1
M  END
>  <score>  (98) 
5.93003

$$$$

     RDKit          3D

 56 59  0  0  0  0  0  0  0  0999 V2000
   16.1756   -8.1905   -1.8185 H   0  0  0  0  0  0  0  0  0  0  0  0
   15.9389   -7.1611   -1.5676 C   0  0  0  0  0  0  0  0  0  0  0  0
   16.8442   -6.3897   -0.8288 C   0  0  0  0  0  0  0  0  0  0  0  0
   17.7930   -6.8127   -0.5099 H   0  0  0  0  0  0  0  0  0  0  0  0
   16.5285   -5.0667   -0.4982 C   0  0  0  0  0  0  0  0  0  0  0  0
   17.2414   -4.4686    0.0615 H   0  0  0  0  0  0  0  0  0  0  0  0
   15.3035   -4.5057   -0.8928 C   0  0  0  0  0  0  0  0  0  0  0  0
   14.9502   -3.0636   -0.5795 C   0  0  0  0  0  0  0  0  0  0  0  0
   15.4824   -2.1226   -1.6543 C   0  0  0  0  0  0  0  0  0  0  0  0
   16.0243   -2.5932   -2.8645 C   0  0  0  0  0  0  0  0  0  0  0  0
   16.1078   -3.6627   -3.0404 H   0  0  0  0  0  0  0  0  0  0  0  0
   16.4455   -1.6941   -3.8456 C   0  0  0  0  0  0  0  0  0  0  0  0
   16.8618   -2.0654   -4.7738 H   0  0  0  0  0  0  0  0  0  0  0  0
   16.3268   -0.3191   -3.6395 C   0  0  0  0  0  0  0  0  0  0  0  0
   16.6690    0.3559   -4.4202 H   0  0  0  0  0  0  0  0  0  0  0  0
   15.7716    0.1816   -2.4445 C   0  0  0  0  0  0  0  0  0  0  0  0
   15.6431    1.6378   -2.2046 C   0  0  0  0  0  0  0  0  0  0  0  0
   16.1537    2.4503   -2.9657 O   0  0  0  0  0  0  0  0  0  0  0  0
   15.0126    2.1065   -1.0597 N   0  0  0  0  0  0  0  0  0  0  0  0
   14.6596    1.3894   -0.4309 H   0  0  0  0  0  0  0  0  0  0  0  0
   15.2798    3.4178   -0.4624 C   0  0  0  0  0  0  0  0  0  0  0  0
   16.2954    3.7500   -0.7140 H   0  0  0  0  0  0  0  0  0  0  0  0
   14.5685    4.1786   -0.8147 H   0  0  0  0  0  0  0  0  0  0  0  0
   15.1421    3.1949    1.0476 C   0  0  0  0  0  0  0  0  0  0  0  0
   15.7173    2.3045    1.2912 H   0  0  0  0  0  0  0  0  0  0  0  0
   14.0905    2.9840    1.2565 H   0  0  0  0  0  0  0  0  0  0  0  0
   15.5800    4.3359    1.9370 C   0  0  0  0  0  0  0  0  0  0  0  0
   14.6392    5.2889    2.3261 C   0  0  0  0  0  0  0  0  0  0  0  0
   13.6030    5.1500    2.0453 H   0  0  0  0  0  0  0  0  0  0  0  0
   15.0272    6.3922    3.0814 C   0  0  0  0  0  0  0  0  0  0  0  0
   14.3080    7.1664    3.3101 H   0  0  0  0  0  0  0  0  0  0  0  0
   16.3381    6.5132    3.5296 C   0  0  0  0  0  0  0  0  0  0  0  0
   16.6248    7.3919    4.0904 H   0  0  0  0  0  0  0  0  0  0  0  0
   17.2656    5.5065    3.2625 C   0  0  0  0  0  0  0  0  0  0  0  0
   18.2711    5.5704    3.6714 H   0  0  0  0  0  0  0  0  0  0  0  0
   16.8927    4.4396    2.4292 C   0  0  0  0  0  0  0  0  0  0  0  0
   17.6313    3.6890    2.1734 H   0  0  0  0  0  0  0  0  0  0  0  0
   15.3608   -0.7417   -1.4628 C   0  0  0  0  0  0  0  0  0  0  0  0
   14.9358   -0.3942   -0.5223 H   0  0  0  0  0  0  0  0  0  0  0  0
   13.4288   -2.8744   -0.3875 C   0  0  0  0  0  0  0  0  0  0  0  0
   12.5472   -3.0349   -1.2291 O   0  0  0  0  0  0  0  0  0  0  0  0
   13.1650   -2.4836    0.9091 N   0  0  0  0  0  0  0  0  0  0  0  0
   11.8515   -2.2075    1.4946 C   0  0  0  0  0  0  0  0  0  0  0  0
   11.7689   -1.1495    1.7657 H   0  0  0  0  0  0  0  0  0  0  0  0
   11.0489   -2.4409    0.7850 H   0  0  0  0  0  0  0  0  0  0  0  0
   11.6936   -2.8124    2.3955 H   0  0  0  0  0  0  0  0  0  0  0  0
   14.3744   -2.4007    1.5563 C   0  0  0  0  0  0  0  0  0  0  0  0
   14.5059   -2.0714    2.8707 N   0  0  0  0  0  0  0  0  0  0  0  0
   13.6651   -2.0465    3.4469 H   0  0  0  0  0  0  0  0  0  0  0  0
   15.4123   -2.2104    3.3124 H   0  0  0  0  0  0  0  0  0  0  0  0
   15.3776   -2.6850    0.7867 N   0  0  0  0  0  4  0  0  0  0  0  0
   16.3420   -2.7488    1.1155 H   0  0  0  0  0  0  0  0  0  0  0  0
   14.4194   -5.2813   -1.6581 C   0  0  0  0  0  0  0  0  0  0  0  0
   13.4858   -4.8478   -2.0029 H   0  0  0  0  0  0  0  0  0  0  0  0
   14.7294   -6.6015   -1.9915 C   0  0  0  0  0  0  0  0  0  0  0  0
   14.0268   -7.1857   -2.5785 H   0  0  0  0  0  0  0  0  0  0  0  0
  1  2  1  0
  2  3  2  0
  3  4  1  0
  3  5  1  0
  5  6  1  0
  5  7  2  0
  7  8  1  0
  8  9  1  0
  9 10  2  0
 10 11  1  0
 10 12  1  0
 12 13  1  0
 12 14  2  0
 14 15  1  0
 14 16  1  0
 16 17  1  0
 17 18  2  0
 17 19  1  0
 19 20  1  0
 19 21  1  0
 21 22  1  0
 21 23  1  0
 21 24  1  0
 24 25  1  0
 24 26  1  0
 24 27  1  0
 27 28  2  0
 28 29  1  0
 28 30  1  0
 30 31  1  0
 30 32  2  0
 32 33  1  0
 32 34  1  0
 34 35  1  0
 34 36  2  0
 36 37  1  0
 16 38  2  0
 38 39  1  0
  8 40  1  0
 40 41  2  0
 40 42  1  0
 42 43  1  0
 43 44  1  0
 43 45  1  0
 43 46  1  0
 42 47  1  0
 47 48  1  0
 48 49  1  0
 48 50  1  0
 47 51  2  0
 51 52  1  0
  7 53  1  0
 53 54  1  0
 53 55  2  0
 55 56  1  0
 55  2  1  0
 51  8  1  0
 38  9  1  0
 36 27  1  0
M  CHG  1  51   1
M  END
>  <score>  (99) 
5.92588

$$$$

     RDKit          3D

 51 54  0  0  0  0  0  0  0  0999 V2000
   16.1040   -8.4471   -1.6635 H   0  0  0  0  0  0  0  0  0  0  0  0
   15.8636   -7.4040   -1.4942 C   0  0  0  0  0  0  0  0  0  0  0  0
   16.7673   -6.5839   -0.8077 C   0  0  0  0  0  0  0  0  0  0  0  0
   17.7129   -6.9722   -0.4421 H   0  0  0  0  0  0  0  0  0  0  0  0
   16.4501   -5.2477   -0.5763 C   0  0  0  0  0  0  0  0  0  0  0  0
   17.1495   -4.6038   -0.0478 H   0  0  0  0  0  0  0  0  0  0  0  0
   15.2214   -4.7313   -1.0042 C   0  0  0  0  0  0  0  0  0  0  0  0
   14.8544   -3.3106   -0.6864 C   0  0  0  0  0  0  0  0  0  0  0  0
   15.3800   -2.3281   -1.7047 C   0  0  0  0  0  0  0  0  0  0  0  0
   15.9767   -2.6766   -2.9375 C   0  0  0  0  0  0  0  0  0  0  0  0
   16.1305   -3.7187   -3.2079 H   0  0  0  0  0  0  0  0  0  0  0  0
   16.3783   -1.6649   -3.8252 C   0  0  0  0  0  0  0  0  0  0  0  0
   16.8803   -1.9081   -4.7593 H   0  0  0  0  0  0  0  0  0  0  0  0
   16.1138   -0.3278   -3.5037 C   0  0  0  0  0  0  0  0  0  0  0  0
   16.3843    0.4693   -4.1840 H   0  0  0  0  0  0  0  0  0  0  0  0
   15.4865    0.0017   -2.3028 C   0  0  0  0  0  0  0  0  0  0  0  0
   15.1254    1.2785   -1.9616 N   0  0  0  0  0  0  0  0  0  0  0  0
   15.3597    1.5688   -1.0241 H   0  0  0  0  0  0  0  0  0  0  0  0
   15.5027    2.4745   -3.0681 S   0  0  0  0  0  0  0  0  0  0  0  0
   16.9564    2.4579   -3.2500 O   0  0  0  0  0  0  0  0  0  0  0  0
   15.0326    3.7238   -2.4588 O   0  0  0  0  0  0  0  0  0  0  0  0
   14.5826    2.0392   -4.5844 C   0  0  0  0  0  0  0  0  0  0  0  0
   13.2014    1.8221   -4.5236 C   0  0  0  0  0  0  0  0  0  0  0  0
   12.6972    1.6855   -3.5734 H   0  0  0  0  0  0  0  0  0  0  0  0
   12.4368    1.8232   -5.6892 C   0  0  0  0  0  0  0  0  0  0  0  0
   11.3563    1.7410   -5.6234 H   0  0  0  0  0  0  0  0  0  0  0  0
   13.0672    1.9253   -6.9307 C   0  0  0  0  0  0  0  0  0  0  0  0
   12.4767    1.9749   -7.8370 H   0  0  0  0  0  0  0  0  0  0  0  0
   14.4586    1.9619   -7.0087 C   0  0  0  0  0  0  0  0  0  0  0  0
   14.9601    1.9906   -7.9704 H   0  0  0  0  0  0  0  0  0  0  0  0
   15.2125    2.0211   -5.8406 C   0  0  0  0  0  0  0  0  0  0  0  0
   16.2879    2.1154   -5.9297 H   0  0  0  0  0  0  0  0  0  0  0  0
   15.1574   -0.9845   -1.4111 C   0  0  0  0  0  0  0  0  0  0  0  0
   14.6715   -0.7084   -0.4818 H   0  0  0  0  0  0  0  0  0  0  0  0
   13.3383   -3.0917   -0.5296 C   0  0  0  0  0  0  0  0  0  0  0  0
   12.4831   -3.1931   -1.4100 O   0  0  0  0  0  0  0  0  0  0  0  0
   13.0685   -2.6656    0.7542 N   0  0  0  0  0  0  0  0  0  0  0  0
   11.7594   -2.3027    1.2930 C   0  0  0  0  0  0  0  0  0  0  0  0
   10.9701   -2.4789    0.5520 H   0  0  0  0  0  0  0  0  0  0  0  0
   11.5360   -2.9068    2.1794 H   0  0  0  0  0  0  0  0  0  0  0  0
   11.7345   -1.2426    1.5708 H   0  0  0  0  0  0  0  0  0  0  0  0
   14.2705   -2.6057    1.4285 C   0  0  0  0  0  0  0  0  0  0  0  0
   14.4466   -2.2188    2.7242 N   0  0  0  0  0  0  0  0  0  0  0  0
   15.3775   -2.2991    3.1329 H   0  0  0  0  0  0  0  0  0  0  0  0
   13.6322   -2.1006    3.3245 H   0  0  0  0  0  0  0  0  0  0  0  0
   15.2695   -2.9635    0.6927 N   0  0  0  0  0  4  0  0  0  0  0  0
   16.2373   -2.9973    1.0216 H   0  0  0  0  0  0  0  0  0  0  0  0
   14.3390   -5.5418   -1.7304 C   0  0  0  0  0  0  0  0  0  0  0  0
   13.4040   -5.1276   -2.0989 H   0  0  0  0  0  0  0  0  0  0  0  0
   14.6552   -6.8787   -1.9696 C   0  0  0  0  0  0  0  0  0  0  0  0
   13.9532   -7.5000   -2.5167 H   0  0  0  0  0  0  0  0  0  0  0  0
  1  2  1  0
  2  3  2  0
  3  4  1  0
  3  5  1  0
  5  6  1  0
  5  7  2  0
  7  8  1  0
  8  9  1  0
  9 10  2  0
 10 11  1  0
 10 12  1  0
 12 13  1  0
 12 14  2  0
 14 15  1  0
 14 16  1  0
 16 17  1  0
 17 18  1  0
 17 19  1  0
 19 20  2  0
 19 21  2  0
 19 22  1  0
 22 23  2  0
 23 24  1  0
 23 25  1  0
 25 26  1  0
 25 27  2  0
 27 28  1  0
 27 29  1  0
 29 30  1  0
 29 31  2  0
 31 32  1  0
 16 33  2  0
 33 34  1  0
  8 35  1  0
 35 36  2  0
 35 37  1  0
 37 38  1  0
 38 39  1  0
 38 40  1  0
 38 41  1  0
 37 42  1  0
 42 43  1  0
 43 44  1  0
 43 45  1  0
 42 46  2  0
 46 47  1  0
  7 48  1  0
 48 49  1  0
 48 50  2  0
 50 51  1  0
 50  2  1  0
 46  8  1  0
 33  9  1  0
 31 22  1  0
M  CHG  1  46   1
M  END
>  <score>  (100) 
5.92458

$$$$

     RDKit          3D

 53 56  0  0  0  0  0  0  0  0999 V2000
   16.2612   -8.5680   -1.8913 H   0  0  0  0  0  0  0  0  0  0  0  0
   15.9789   -7.5588   -1.6045 C   0  0  0  0  0  0  0  0  0  0  0  0
   16.8477   -6.7768   -0.8370 C   0  0  0  0  0  0  0  0  0  0  0  0
   17.8111   -7.1787   -0.5361 H   0  0  0  0  0  0  0  0  0  0  0  0
   16.4743   -5.4806   -0.4489 C   0  0  0  0  0  0  0  0  0  0  0  0
   17.1617   -4.8856    0.1450 H   0  0  0  0  0  0  0  0  0  0  0  0
   15.2258   -4.9491   -0.8224 C   0  0  0  0  0  0  0  0  0  0  0  0
   14.7930   -3.5297   -0.4483 C   0  0  0  0  0  0  0  0  0  0  0  0
   15.1373   -2.5101   -1.5282 C   0  0  0  0  0  0  0  0  0  0  0  0
   16.0115   -2.8115   -2.5844 C   0  0  0  0  0  0  0  0  0  0  0  0
   16.5191   -3.7720   -2.6011 H   0  0  0  0  0  0  0  0  0  0  0  0
   16.2132   -1.8932   -3.6219 C   0  0  0  0  0  0  0  0  0  0  0  0
   16.8712   -2.1283   -4.4524 H   0  0  0  0  0  0  0  0  0  0  0  0
   15.5679   -0.6579   -3.5958 C   0  0  0  0  0  0  0  0  0  0  0  0
   15.7380    0.0386   -4.4136 H   0  0  0  0  0  0  0  0  0  0  0  0
   14.7347   -0.3108   -2.5201 C   0  0  0  0  0  0  0  0  0  0  0  0
   14.1743    1.0434   -2.4237 C   0  0  0  0  0  0  0  0  0  0  0  0
   12.9597    1.2098   -2.3534 O   0  0  0  0  0  0  0  0  0  0  0  0
   15.0444    2.1280   -2.4248 N   0  0  0  0  0  0  0  0  0  0  0  0
   14.5711    3.4975   -2.2824 C   0  0  0  0  0  0  0  0  0  0  0  0
   14.8484    4.0558   -3.1784 H   0  0  0  0  0  0  0  0  0  0  0  0
   13.4821    3.5211   -2.2075 H   0  0  0  0  0  0  0  0  0  0  0  0
   15.1965    4.1585   -1.0512 C   0  0  0  0  0  0  0  0  0  0  0  0
   14.6735    3.8175   -0.1541 H   0  0  0  0  0  0  0  0  0  0  0  0
   15.0449    5.2375   -1.1226 H   0  0  0  0  0  0  0  0  0  0  0  0
   16.7019    3.8694   -0.8954 C   0  0  0  0  0  0  0  0  0  0  0  0
   16.8575    3.2719    0.0086 H   0  0  0  0  0  0  0  0  0  0  0  0
   17.2391    4.8091   -0.7705 H   0  0  0  0  0  0  0  0  0  0  0  0
   17.3003    3.1167   -2.0892 C   0  0  0  0  0  0  0  0  0  0  0  0
   18.3283    2.8204   -1.8578 H   0  0  0  0  0  0  0  0  0  0  0  0
   17.3340    3.7852   -2.9540 H   0  0  0  0  0  0  0  0  0  0  0  0
   16.4823    1.8710   -2.4298 C   0  0  0  0  0  0  0  0  0  0  0  0
   16.7758    1.4849   -3.4104 H   0  0  0  0  0  0  0  0  0  0  0  0
   16.7138    1.0985   -1.6902 H   0  0  0  0  0  0  0  0  0  0  0  0
   14.5138   -1.2501   -1.5032 C   0  0  0  0  0  0  0  0  0  0  0  0
   13.8632   -1.0030   -0.6662 H   0  0  0  0  0  0  0  0  0  0  0  0
   13.2779   -3.4306   -0.1765 C   0  0  0  0  0  0  0  0  0  0  0  0
   12.3688   -3.6849   -0.9668 O   0  0  0  0  0  0  0  0  0  0  0  0
   13.0653   -2.8158    1.0388 N   0  0  0  0  0  0  0  0  0  0  0  0
   11.7913   -2.2659    1.5136 C   0  0  0  0  0  0  0  0  0  0  0  0
   11.4752   -2.7589    2.4394 H   0  0  0  0  0  0  0  0  0  0  0  0
   11.0027   -2.4127    0.7658 H   0  0  0  0  0  0  0  0  0  0  0  0
   11.8711   -1.1885    1.7022 H   0  0  0  0  0  0  0  0  0  0  0  0
   14.3044   -2.6331    1.6123 C   0  0  0  0  0  0  0  0  0  0  0  0
   14.5144   -2.0459    2.8242 N   0  0  0  0  0  0  0  0  0  0  0  0
   13.7066   -1.9361    3.4352 H   0  0  0  0  0  0  0  0  0  0  0  0
   15.4327   -2.1717    3.2426 H   0  0  0  0  0  0  0  0  0  0  0  0
   15.2719   -3.0765    0.8767 N   0  0  0  0  0  4  0  0  0  0  0  0
   16.2595   -2.9807    1.1201 H   0  0  0  0  0  0  0  0  0  0  0  0
   14.3789   -5.7417   -1.6199 C   0  0  0  0  0  0  0  0  0  0  0  0
   13.4212   -5.3489   -1.9463 H   0  0  0  0  0  0  0  0  0  0  0  0
   14.7470   -7.0366   -2.0038 C   0  0  0  0  0  0  0  0  0  0  0  0
   14.0756   -7.6378   -2.6097 H   0  0  0  0  0  0  0  0  0  0  0  0
  1  2  1  0
  2  3  2  0
  3  4  1  0
  3  5  1  0
  5  6  1  0
  5  7  2  0
  7  8  1  0
  8  9  1  0
  9 10  2  0
 10 11  1  0
 10 12  1  0
 12 13  1  0
 12 14  2  0
 14 15  1  0
 14 16  1  0
 16 17  1  0
 17 18  2  0
 17 19  1  0
 19 20  1  0
 20 21  1  0
 20 22  1  0
 20 23  1  0
 23 24  1  0
 23 25  1  0
 23 26  1  0
 26 27  1  0
 26 28  1  0
 26 29  1  0
 29 30  1  0
 29 31  1  0
 29 32  1  0
 32 33  1  0
 32 34  1  0
 16 35  2  0
 35 36  1  0
  8 37  1  0
 37 38  2  0
 37 39  1  0
 39 40  1  0
 40 41  1  0
 40 42  1  0
 40 43  1  0
 39 44  1  0
 44 45  1  0
 45 46  1  0
 45 47  1  0
 44 48  2  0
 48 49  1  0
  7 50  1  0
 50 51  1  0
 50 52  2  0
 52 53  1  0
 52  2  1  0
 48  8  1  0
 35  9  1  0
 32 19  1  0
M  CHG  1  48   1
M  END
>  <score>  (101) 
5.9239

$$$$

     RDKit          3D

 48 51  0  0  0  0  0  0  0  0999 V2000
   16.0978   -8.4242   -1.6549 H   0  0  0  0  0  0  0  0  0  0  0  0
   15.8566   -7.3794   -1.4885 C   0  0  0  0  0  0  0  0  0  0  0  0
   16.7551   -6.5539   -0.8035 C   0  0  0  0  0  0  0  0  0  0  0  0
   17.6931   -6.9476   -0.4270 H   0  0  0  0  0  0  0  0  0  0  0  0
   16.4397   -5.2135   -0.5797 C   0  0  0  0  0  0  0  0  0  0  0  0
   17.1403   -4.5749   -0.0457 H   0  0  0  0  0  0  0  0  0  0  0  0
   15.2162   -4.6907   -1.0245 C   0  0  0  0  0  0  0  0  0  0  0  0
   14.8435   -3.2551   -0.7395 C   0  0  0  0  0  0  0  0  0  0  0  0
   15.3940   -2.2926   -1.7755 C   0  0  0  0  0  0  0  0  0  0  0  0
   15.9439   -2.7260   -2.9950 C   0  0  0  0  0  0  0  0  0  0  0  0
   15.9817   -3.7833   -3.2322 H   0  0  0  0  0  0  0  0  0  0  0  0
   16.4466   -1.8028   -3.9159 C   0  0  0  0  0  0  0  0  0  0  0  0
   16.8569   -2.1200   -4.8641 H   0  0  0  0  0  0  0  0  0  0  0  0
   16.4289   -0.4430   -3.6231 C   0  0  0  0  0  0  0  0  0  0  0  0
   16.8262    0.2848   -4.3245 H   0  0  0  0  0  0  0  0  0  0  0  0
   15.8622    0.0008   -2.4291 C   0  0  0  0  0  0  0  0  0  0  0  0
   15.7936    1.4165   -2.1319 C   0  0  0  0  0  0  0  0  0  0  0  0
   16.8375    2.2531   -2.5165 C   0  0  0  0  0  0  0  0  0  0  0  0
   17.7029    1.8265   -3.0095 H   0  0  0  0  0  0  0  0  0  0  0  0
   16.7805    3.6153   -2.2432 C   0  0  0  0  0  0  0  0  0  0  0  0
   17.6072    4.2483   -2.5450 H   0  0  0  0  0  0  0  0  0  0  0  0
   15.6772    4.1443   -1.5645 C   0  0  0  0  0  0  0  0  0  0  0  0
   15.6440    5.2125   -1.3587 H   0  0  0  0  0  0  0  0  0  0  0  0
   14.6222    3.3045   -1.1327 C   0  0  0  0  0  0  0  0  0  0  0  0
   13.5581    3.8013   -0.3529 N   0  0  0  0  0  4  0  0  0  0  0  0
   13.7459    4.8697    0.2265 O   0  0  0  0  0  0  0  0  0  0  0  0
   12.5069    3.1443   -0.2781 O   0  0  0  0  0  1  0  0  0  0  0  0
   14.6967    1.9374   -1.4466 C   0  0  0  0  0  0  0  0  0  0  0  0
   13.9130    1.2428   -1.1530 H   0  0  0  0  0  0  0  0  0  0  0  0
   15.3289   -0.9196   -1.5275 C   0  0  0  0  0  0  0  0  0  0  0  0
   14.8690   -0.5604   -0.6113 H   0  0  0  0  0  0  0  0  0  0  0  0
   13.3288   -3.0597   -0.5558 C   0  0  0  0  0  0  0  0  0  0  0  0
   12.4593   -3.2134   -1.4079 O   0  0  0  0  0  0  0  0  0  0  0  0
   13.0560   -2.6758    0.7426 N   0  0  0  0  0  0  0  0  0  0  0  0
   11.7509   -2.3083    1.2918 C   0  0  0  0  0  0  0  0  0  0  0  0
   11.7424   -1.2475    1.5706 H   0  0  0  0  0  0  0  0  0  0  0  0
   11.5328   -2.9035    2.1870 H   0  0  0  0  0  0  0  0  0  0  0  0
   10.9500   -2.4811    0.5594 H   0  0  0  0  0  0  0  0  0  0  0  0
   14.2638   -2.5929    1.3942 C   0  0  0  0  0  0  0  0  0  0  0  0
   14.4489   -2.2350    2.6994 N   0  0  0  0  0  0  0  0  0  0  0  0
   15.3879   -2.2838    3.0963 H   0  0  0  0  0  0  0  0  0  0  0  0
   13.6388   -2.1087    3.3009 H   0  0  0  0  0  0  0  0  0  0  0  0
   15.2571   -2.8987    0.6336 N   0  0  0  0  0  4  0  0  0  0  0  0
   16.2110   -3.0051    0.9770 H   0  0  0  0  0  0  0  0  0  0  0  0
   14.3306   -5.5160   -1.7317 C   0  0  0  0  0  0  0  0  0  0  0  0
   13.3908   -5.1117   -2.0983 H   0  0  0  0  0  0  0  0  0  0  0  0
   14.6475   -6.8556   -1.9591 C   0  0  0  0  0  0  0  0  0  0  0  0
   13.9510   -7.4795   -2.5082 H   0  0  0  0  0  0  0  0  0  0  0  0
  1  2  1  0
  2  3  2  0
  3  4  1  0
  3  5  1  0
  5  6  1  0
  5  7  2  0
  7  8  1  0
  8  9  1  0
  9 10  2  0
 10 11  1  0
 10 12  1  0
 12 13  1  0
 12 14  2  0
 14 15  1  0
 14 16  1  0
 16 17  1  0
 17 18  2  0
 18 19  1  0
 18 20  1  0
 20 21  1  0
 20 22  2  0
 22 23  1  0
 22 24  1  0
 24 25  1  0
 25 26  2  0
 25 27  1  0
 24 28  2  0
 28 29  1  0
 16 30  2  0
 30 31  1  0
  8 32  1  0
 32 33  2  0
 32 34  1  0
 34 35  1  0
 35 36  1  0
 35 37  1  0
 35 38  1  0
 34 39  1  0
 39 40  1  0
 40 41  1  0
 40 42  1  0
 39 43  2  0
 43 44  1  0
  7 45  1  0
 45 46  1  0
 45 47  2  0
 47 48  1  0
 47  2  1  0
 43  8  1  0
 30  9  1  0
 28 17  1  0
M  CHG  3  25   1  27  -1  43   1
M  END
>  <score>  (102) 
5.92005

$$$$

     RDKit          3D

 48 51  0  0  0  0  0  0  0  0999 V2000
   16.1214   -8.4861   -1.6113 H   0  0  0  0  0  0  0  0  0  0  0  0
   15.8534   -7.4408   -1.4730 C   0  0  0  0  0  0  0  0  0  0  0  0
   16.7289   -6.5835   -0.8023 C   0  0  0  0  0  0  0  0  0  0  0  0
   17.6722   -6.9558   -0.4169 H   0  0  0  0  0  0  0  0  0  0  0  0
   16.3934   -5.2382   -0.6120 C   0  0  0  0  0  0  0  0  0  0  0  0
   17.0665   -4.5869   -0.0631 H   0  0  0  0  0  0  0  0  0  0  0  0
   15.1743   -4.7158   -1.0744 C   0  0  0  0  0  0  0  0  0  0  0  0
   14.8153   -3.2524   -0.7835 C   0  0  0  0  0  0  0  0  0  0  0  0
   15.3911   -2.2460   -1.7788 C   0  0  0  0  0  0  0  0  0  0  0  0
   15.9420   -2.6405   -3.0084 C   0  0  0  0  0  0  0  0  0  0  0  0
   16.0028   -3.6939   -3.2566 H   0  0  0  0  0  0  0  0  0  0  0  0
   16.4175   -1.6882   -3.9195 C   0  0  0  0  0  0  0  0  0  0  0  0
   16.8576   -2.0034   -4.8603 H   0  0  0  0  0  0  0  0  0  0  0  0
   16.3376   -0.3222   -3.6208 C   0  0  0  0  0  0  0  0  0  0  0  0
   16.7084    0.4076   -4.3354 H   0  0  0  0  0  0  0  0  0  0  0  0
   15.7967    0.1101   -2.3995 C   0  0  0  0  0  0  0  0  0  0  0  0
   15.7166    1.5549   -2.0712 C   0  0  0  0  0  0  0  0  0  0  0  0
   15.3746    2.4986   -3.0565 C   0  0  0  0  0  0  0  0  0  0  0  0
   15.1558    2.1615   -4.0646 H   0  0  0  0  0  0  0  0  0  0  0  0
   15.2828    3.8641   -2.7484 C   0  0  0  0  0  0  0  0  0  0  0  0
   14.9971    4.5788   -3.5129 H   0  0  0  0  0  0  0  0  0  0  0  0
   15.5522    4.3068   -1.4511 C   0  0  0  0  0  0  0  0  0  0  0  0
   15.4918    5.3574   -1.1920 H   0  0  0  0  0  0  0  0  0  0  0  0
   15.8990    3.3882   -0.4718 C   0  0  0  0  0  0  0  0  0  0  0  0
   16.1748    3.8330    0.8019 N   0  0  0  0  0  0  0  0  0  0  0  0
   16.0919    4.8234    1.0185 H   0  0  0  0  0  0  0  0  0  0  0  0
   16.4135    3.1597    1.5261 H   0  0  0  0  0  0  0  0  0  0  0  0
   15.9724    2.0297   -0.7710 C   0  0  0  0  0  0  0  0  0  0  0  0
   16.2490    1.3444    0.0184 H   0  0  0  0  0  0  0  0  0  0  0  0
   15.3269   -0.8647   -1.5010 C   0  0  0  0  0  0  0  0  0  0  0  0
   14.8952   -0.5310   -0.5646 H   0  0  0  0  0  0  0  0  0  0  0  0
   13.3026   -3.0258   -0.6036 C   0  0  0  0  0  0  0  0  0  0  0  0
   12.4321   -3.0890   -1.4680 O   0  0  0  0  0  0  0  0  0  0  0  0
   13.0250   -2.6760    0.7029 N   0  0  0  0  0  0  0  0  0  0  0  0
   11.7204   -2.3135    1.2623 C   0  0  0  0  0  0  0  0  0  0  0  0
   11.6945   -1.2631    1.5592 H   0  0  0  0  0  0  0  0  0  0  0  0
   11.5027   -2.9157    2.1457 H   0  0  0  0  0  0  0  0  0  0  0  0
   10.9135   -2.4732    0.5429 H   0  0  0  0  0  0  0  0  0  0  0  0
   14.2244   -2.6294    1.3647 C   0  0  0  0  0  0  0  0  0  0  0  0
   14.3960   -2.3313    2.6831 N   0  0  0  0  0  0  0  0  0  0  0  0
   15.3315   -2.3532    3.0899 H   0  0  0  0  0  0  0  0  0  0  0  0
   13.5828   -2.1270    3.2592 H   0  0  0  0  0  0  0  0  0  0  0  0
   15.2194   -2.9062    0.5938 N   0  0  0  0  0  4  0  0  0  0  0  0
   16.1881   -2.9125    0.9067 H   0  0  0  0  0  0  0  0  0  0  0  0
   14.3037   -5.5876   -1.7672 C   0  0  0  0  0  0  0  0  0  0  0  0
   13.3533   -5.2327   -2.1565 H   0  0  0  0  0  0  0  0  0  0  0  0
   14.6430   -6.9388   -1.9621 C   0  0  0  0  0  0  0  0  0  0  0  0
   13.9726   -7.6125   -2.4878 H   0  0  0  0  0  0  0  0  0  0  0  0
  1  2  1  0
  2  3  2  0
  3  4  1  0
  3  5  1  0
  5  6  1  0
  5  7  2  0
  7  8  1  0
  8  9  1  0
  9 10  2  0
 10 11  1  0
 10 12  1  0
 12 13  1  0
 12 14  2  0
 14 15  1  0
 14 16  1  0
 16 17  1  0
 17 18  2  0
 18 19  1  0
 18 20  1  0
 20 21  1  0
 20 22  2  0
 22 23  1  0
 22 24  1  0
 24 25  1  0
 25 26  1  0
 25 27  1  0
 24 28  2  0
 28 29  1  0
 16 30  2  0
 30 31  1  0
  8 32  1  0
 32 33  2  0
 32 34  1  0
 34 35  1  0
 35 36  1  0
 35 37  1  0
 35 38  1  0
 34 39  1  0
 39 40  1  0
 40 41  1  0
 40 42  1  0
 39 43  2  0
 43 44  1  0
  7 45  1  0
 45 46  1  0
 45 47  2  0
 47 48  1  0
 47  2  1  0
 43  8  1  0
 30  9  1  0
 28 17  1  0
M  CHG  1  43   1
M  END
>  <score>  (103) 
5.91763

$$$$

     RDKit          3D

 52 55  0  0  0  0  0  0  0  0999 V2000
   16.1200   -8.4413   -1.6959 H   0  0  0  0  0  0  0  0  0  0  0  0
   15.8758   -7.4003   -1.5054 C   0  0  0  0  0  0  0  0  0  0  0  0
   16.7721   -6.5824   -0.8081 C   0  0  0  0  0  0  0  0  0  0  0  0
   17.7200   -6.9816   -0.4591 H   0  0  0  0  0  0  0  0  0  0  0  0
   16.4452   -5.2464   -0.5516 C   0  0  0  0  0  0  0  0  0  0  0  0
   17.1439   -4.6139   -0.0112 H   0  0  0  0  0  0  0  0  0  0  0  0
   15.2162   -4.7164   -0.9750 C   0  0  0  0  0  0  0  0  0  0  0  0
   14.8549   -3.2665   -0.6953 C   0  0  0  0  0  0  0  0  0  0  0  0
   15.3970   -2.3323   -1.7670 C   0  0  0  0  0  0  0  0  0  0  0  0
   15.9287   -2.8220   -2.9726 C   0  0  0  0  0  0  0  0  0  0  0  0
   15.9526   -3.8918   -3.1561 H   0  0  0  0  0  0  0  0  0  0  0  0
   16.4533   -1.9470   -3.9246 C   0  0  0  0  0  0  0  0  0  0  0  0
   16.8768   -2.3276   -4.8435 H   0  0  0  0  0  0  0  0  0  0  0  0
   16.4469   -0.5743   -3.6887 C   0  0  0  0  0  0  0  0  0  0  0  0
   16.8829    0.0948   -4.4251 H   0  0  0  0  0  0  0  0  0  0  0  0
   15.8771   -0.0569   -2.5167 C   0  0  0  0  0  0  0  0  0  0  0  0
   15.9126    1.3880   -2.2630 C   0  0  0  0  0  0  0  0  0  0  0  0
   17.0758    2.0781   -2.6139 C   0  0  0  0  0  0  0  0  0  0  0  0
   17.9216    1.5285   -3.0164 H   0  0  0  0  0  0  0  0  0  0  0  0
   17.1449    3.4599   -2.4632 C   0  0  0  0  0  0  0  0  0  0  0  0
   18.0308    3.9996   -2.7723 H   0  0  0  0  0  0  0  0  0  0  0  0
   16.0824    4.1619   -1.9181 C   0  0  0  0  0  0  0  0  0  0  0  0
   16.1762    5.2439   -1.8530 H   0  0  0  0  0  0  0  0  0  0  0  0
   14.9377    3.4853   -1.4799 C   0  0  0  0  0  0  0  0  0  0  0  0
   13.6186    4.4836   -0.7127 S   0  0  0  0  0  0  0  0  0  0  0  0
   12.2863    4.0937   -1.2048 O   0  0  0  0  0  0  0  0  0  0  0  0
   13.8963    5.9159   -0.9308 O   0  0  0  0  0  0  0  0  0  0  0  0
   13.7584    4.0801    1.0451 C   0  0  0  0  0  0  0  0  0  0  0  0
   13.2247    3.1478    1.2437 H   0  0  0  0  0  0  0  0  0  0  0  0
   13.3335    4.8772    1.6489 H   0  0  0  0  0  0  0  0  0  0  0  0
   14.8179    3.9841    1.2906 H   0  0  0  0  0  0  0  0  0  0  0  0
   14.8378    2.0909   -1.6842 C   0  0  0  0  0  0  0  0  0  0  0  0
   13.9432    1.5220   -1.4322 H   0  0  0  0  0  0  0  0  0  0  0  0
   15.3466   -0.9409   -1.5719 C   0  0  0  0  0  0  0  0  0  0  0  0
   14.9321   -0.5378   -0.6533 H   0  0  0  0  0  0  0  0  0  0  0  0
   13.3398   -3.0558   -0.5134 C   0  0  0  0  0  0  0  0  0  0  0  0
   12.4623   -3.2328   -1.3552 O   0  0  0  0  0  0  0  0  0  0  0  0
   13.0847   -2.6181    0.7714 N   0  0  0  0  0  0  0  0  0  0  0  0
   11.7740   -2.2843    1.3284 C   0  0  0  0  0  0  0  0  0  0  0  0
   11.7326   -1.2245    1.6045 H   0  0  0  0  0  0  0  0  0  0  0  0
   11.5675   -2.8867    2.2206 H   0  0  0  0  0  0  0  0  0  0  0  0
   10.9794   -2.4776    0.5962 H   0  0  0  0  0  0  0  0  0  0  0  0
   14.2983   -2.5383    1.4191 C   0  0  0  0  0  0  0  0  0  0  0  0
   14.4790   -2.1747    2.7196 N   0  0  0  0  0  0  0  0  0  0  0  0
   13.6621   -2.1120    3.3253 H   0  0  0  0  0  0  0  0  0  0  0  0
   15.4067   -2.2873    3.1262 H   0  0  0  0  0  0  0  0  0  0  0  0
   15.2923   -2.8686    0.6610 N   0  0  0  0  0  4  0  0  0  0  0  0
   16.2537   -2.9544    0.9963 H   0  0  0  0  0  0  0  0  0  0  0  0
   14.3422   -5.5361   -1.7074 C   0  0  0  0  0  0  0  0  0  0  0  0
   13.4038   -5.1314   -2.0750 H   0  0  0  0  0  0  0  0  0  0  0  0
   14.6664   -6.8713   -1.9684 C   0  0  0  0  0  0  0  0  0  0  0  0
   13.9725   -7.4953   -2.5234 H   0  0  0  0  0  0  0  0  0  0  0  0
  1  2  1  0
  2  3  2  0
  3  4  1  0
  3  5  1  0
  5  6  1  0
  5  7  2  0
  7  8  1  0
  8  9  1  0
  9 10  2  0
 10 11  1  0
 10 12  1  0
 12 13  1  0
 12 14  2  0
 14 15  1  0
 14 16  1  0
 16 17  1  0
 17 18  2  0
 18 19  1  0
 18 20  1  0
 20 21  1  0
 20 22  2  0
 22 23  1  0
 22 24  1  0
 24 25  1  0
 25 26  2  0
 25 27  2  0
 25 28  1  0
 28 29  1  0
 28 30  1  0
 28 31  1  0
 24 32  2  0
 32 33  1  0
 16 34  2  0
 34 35  1  0
  8 36  1  0
 36 37  2  0
 36 38  1  0
 38 39  1  0
 39 40  1  0
 39 41  1  0
 39 42  1  0
 38 43  1  0
 43 44  1  0
 44 45  1  0
 44 46  1  0
 43 47  2  0
 47 48  1  0
  7 49  1  0
 49 50  1  0
 49 51  2  0
 51 52  1  0
 51  2  1  0
 47  8  1  0
 34  9  1  0
 32 17  1  0
M  CHG  1  47   1
M  END
>  <score>  (104) 
5.91122

$$$$

     RDKit          3D

 54 57  0  0  0  0  0  0  0  0999 V2000
   16.1010   -8.3264   -1.6519 H   0  0  0  0  0  0  0  0  0  0  0  0
   15.8659   -7.2806   -1.4834 C   0  0  0  0  0  0  0  0  0  0  0  0
   16.7647   -6.4609   -0.7940 C   0  0  0  0  0  0  0  0  0  0  0  0
   17.7050   -6.8647   -0.4292 H   0  0  0  0  0  0  0  0  0  0  0  0
   16.4521   -5.1160   -0.5647 C   0  0  0  0  0  0  0  0  0  0  0  0
   17.1532   -4.4870   -0.0221 H   0  0  0  0  0  0  0  0  0  0  0  0
   15.2322   -4.5770   -1.0148 C   0  0  0  0  0  0  0  0  0  0  0  0
   14.8519   -3.1289   -0.7184 C   0  0  0  0  0  0  0  0  0  0  0  0
   15.3886   -2.1283   -1.7391 C   0  0  0  0  0  0  0  0  0  0  0  0
   15.9729   -2.5199   -2.9577 C   0  0  0  0  0  0  0  0  0  0  0  0
   16.1179   -3.5745   -3.1662 H   0  0  0  0  0  0  0  0  0  0  0  0
   16.3579   -1.5689   -3.9143 C   0  0  0  0  0  0  0  0  0  0  0  0
   16.8027   -1.8890   -4.8514 H   0  0  0  0  0  0  0  0  0  0  0  0
   16.1632   -0.2056   -3.6609 C   0  0  0  0  0  0  0  0  0  0  0  0
   16.4582    0.5519   -4.3775 H   0  0  0  0  0  0  0  0  0  0  0  0
   15.5920    0.1959   -2.4585 C   0  0  0  0  0  0  0  0  0  0  0  0
   15.3944    1.5236   -2.1183 N   0  0  0  0  0  0  0  0  0  0  0  0
   14.9997    1.6812   -1.1969 H   0  0  0  0  0  0  0  0  0  0  0  0
   15.3875    2.6763   -3.0270 C   0  0  0  0  0  0  0  0  0  0  0  0
   16.1818    2.6048   -3.7774 H   0  0  0  0  0  0  0  0  0  0  0  0
   14.0081    2.7293   -3.7049 C   0  0  0  0  0  0  0  0  0  0  0  0
   13.9489    1.9424   -4.4649 H   0  0  0  0  0  0  0  0  0  0  0  0
   13.2506    2.5126   -2.9467 H   0  0  0  0  0  0  0  0  0  0  0  0
   13.6277    4.0737   -4.3413 C   0  0  0  0  0  0  0  0  0  0  0  0
   12.5533    4.0516   -4.5475 H   0  0  0  0  0  0  0  0  0  0  0  0
   14.1184    4.2175   -5.3081 H   0  0  0  0  0  0  0  0  0  0  0  0
   13.9174    5.2512   -3.4106 C   0  0  0  0  0  0  0  0  0  0  0  0
   13.1466    5.2512   -2.6317 H   0  0  0  0  0  0  0  0  0  0  0  0
   13.8342    6.1820   -3.9806 H   0  0  0  0  0  0  0  0  0  0  0  0
   15.2974    5.2210   -2.7446 C   0  0  0  0  0  0  0  0  0  0  0  0
   15.3074    5.9795   -1.9607 H   0  0  0  0  0  0  0  0  0  0  0  0
   16.0688    5.4921   -3.4648 H   0  0  0  0  0  0  0  0  0  0  0  0
   15.6541    3.8759   -2.1169 C   0  0  0  0  0  0  0  0  0  0  0  0
   15.0786    3.7584   -1.1952 H   0  0  0  0  0  0  0  0  0  0  0  0
   16.7130    3.8756   -1.8400 H   0  0  0  0  0  0  0  0  0  0  0  0
   15.2067   -0.7533   -1.5154 C   0  0  0  0  0  0  0  0  0  0  0  0
   14.7464   -0.3987   -0.5991 H   0  0  0  0  0  0  0  0  0  0  0  0
   13.3250   -2.9243   -0.6037 C   0  0  0  0  0  0  0  0  0  0  0  0
   12.4721   -3.1651   -1.4573 O   0  0  0  0  0  0  0  0  0  0  0  0
   13.0084   -2.4558    0.6567 N   0  0  0  0  0  0  0  0  0  0  0  0
   11.6483   -2.2523    1.1721 C   0  0  0  0  0  0  0  0  0  0  0  0
   11.4351   -2.9441    1.9949 H   0  0  0  0  0  0  0  0  0  0  0  0
   10.9028   -2.4298    0.3852 H   0  0  0  0  0  0  0  0  0  0  0  0
   11.5037   -1.2282    1.5346 H   0  0  0  0  0  0  0  0  0  0  0  0
   14.1849   -2.4440    1.3810 C   0  0  0  0  0  0  0  0  0  0  0  0
   14.3115   -2.1352    2.6970 N   0  0  0  0  0  0  0  0  0  0  0  0
   15.2094   -2.2899    3.1504 H   0  0  0  0  0  0  0  0  0  0  0  0
   13.4641   -2.0241    3.2449 H   0  0  0  0  0  0  0  0  0  0  0  0
   15.2119   -2.7762    0.6730 N   0  0  0  0  0  4  0  0  0  0  0  0
   16.1604   -2.8451    1.0485 H   0  0  0  0  0  0  0  0  0  0  0  0
   14.3509   -5.4077   -1.7283 C   0  0  0  0  0  0  0  0  0  0  0  0
   13.4112   -5.0066   -2.0984 H   0  0  0  0  0  0  0  0  0  0  0  0
   14.6612   -6.7513   -1.9562 C   0  0  0  0  0  0  0  0  0  0  0  0
   13.9611   -7.3793   -2.4966 H   0  0  0  0  0  0  0  0  0  0  0  0
  1  2  1  0
  2  3  2  0
  3  4  1  0
  3  5  1  0
  5  6  1  0
  5  7  2  0
  7  8  1  0
  8  9  1  0
  9 10  2  0
 10 11  1  0
 10 12  1  0
 12 13  1  0
 12 14  2  0
 14 15  1  0
 14 16  1  0
 16 17  1  0
 17 18  1  0
 17 19  1  0
 19 20  1  0
 19 21  1  0
 21 22  1  0
 21 23  1  0
 21 24  1  0
 24 25  1  0
 24 26  1  0
 24 27  1  0
 27 28  1  0
 27 29  1  0
 27 30  1  0
 30 31  1  0
 30 32  1  0
 30 33  1  0
 33 34  1  0
 33 35  1  0
 16 36  2  0
 36 37  1  0
  8 38  1  0
 38 39  2  0
 38 40  1  0
 40 41  1  0
 41 42  1  0
 41 43  1  0
 41 44  1  0
 40 45  1  0
 45 46  1  0
 46 47  1  0
 46 48  1  0
 45 49  2  0
 49 50  1  0
  7 51  1  0
 51 52  1  0
 51 53  2  0
 53 54  1  0
 53  2  1  0
 49  8  1  0
 36  9  1  0
 33 19  1  0
M  CHG  1  49   1
M  END
>  <score>  (105) 
5.90604

$$$$

     RDKit          3D

 51 54  0  0  0  0  0  0  0  0999 V2000
   16.0977   -8.4349   -1.6374 H   0  0  0  0  0  0  0  0  0  0  0  0
   15.8569   -7.3863   -1.4867 C   0  0  0  0  0  0  0  0  0  0  0  0
   16.7486   -6.5546   -0.8027 C   0  0  0  0  0  0  0  0  0  0  0  0
   17.6844   -6.9499   -0.4184 H   0  0  0  0  0  0  0  0  0  0  0  0
   16.4307   -5.2088   -0.5955 C   0  0  0  0  0  0  0  0  0  0  0  0
   17.1219   -4.5719   -0.0508 H   0  0  0  0  0  0  0  0  0  0  0  0
   15.2130   -4.6754   -1.0487 C   0  0  0  0  0  0  0  0  0  0  0  0
   14.8440   -3.2272   -0.7411 C   0  0  0  0  0  0  0  0  0  0  0  0
   15.4072   -2.2084   -1.7306 C   0  0  0  0  0  0  0  0  0  0  0  0
   15.9340   -2.6151   -2.9666 C   0  0  0  0  0  0  0  0  0  0  0  0
   15.9826   -3.6709   -3.2102 H   0  0  0  0  0  0  0  0  0  0  0  0
   16.3966   -1.6764   -3.8934 C   0  0  0  0  0  0  0  0  0  0  0  0
   16.8083   -1.9982   -4.8441 H   0  0  0  0  0  0  0  0  0  0  0  0
   16.3285   -0.3142   -3.6013 C   0  0  0  0  0  0  0  0  0  0  0  0
   16.6824    0.4153   -4.3244 H   0  0  0  0  0  0  0  0  0  0  0  0
   15.8149    0.1363   -2.3783 C   0  0  0  0  0  0  0  0  0  0  0  0
   15.7268    1.5949   -2.1402 C   0  0  0  0  0  0  0  0  0  0  0  0
   15.3604    2.4445   -3.2040 C   0  0  0  0  0  0  0  0  0  0  0  0
   15.1232    2.0220   -4.1798 H   0  0  0  0  0  0  0  0  0  0  0  0
   15.2295    3.8231   -3.0029 C   0  0  0  0  0  0  0  0  0  0  0  0
   14.8847    4.4865   -3.7928 H   0  0  0  0  0  0  0  0  0  0  0  0
   15.5092    4.3751   -1.7580 C   0  0  0  0  0  0  0  0  0  0  0  0
   15.4535    5.4545   -1.6498 H   0  0  0  0  0  0  0  0  0  0  0  0
   15.8576    3.5648   -0.6656 C   0  0  0  0  0  0  0  0  0  0  0  0
   16.1034    4.1991    0.6460 C   0  0  0  0  0  0  0  0  0  0  0  0
   15.9217    5.4017    0.8107 O   0  0  0  0  0  0  0  0  0  0  0  0
   16.4711    3.3988    1.8684 C   0  0  0  0  0  0  0  0  0  0  0  0
   17.1588    2.6015    1.5829 H   0  0  0  0  0  0  0  0  0  0  0  0
   15.5636    2.9813    2.3069 H   0  0  0  0  0  0  0  0  0  0  0  0
   16.9586    4.0334    2.6120 H   0  0  0  0  0  0  0  0  0  0  0  0
   15.9668    2.1689   -0.8730 C   0  0  0  0  0  0  0  0  0  0  0  0
   16.2671    1.5176   -0.0583 H   0  0  0  0  0  0  0  0  0  0  0  0
   15.3558   -0.8235   -1.4500 C   0  0  0  0  0  0  0  0  0  0  0  0
   14.9278   -0.4882   -0.5093 H   0  0  0  0  0  0  0  0  0  0  0  0
   13.3227   -3.0350   -0.5757 C   0  0  0  0  0  0  0  0  0  0  0  0
   12.4597   -3.1741   -1.4398 O   0  0  0  0  0  0  0  0  0  0  0  0
   13.0470   -2.6739    0.7289 N   0  0  0  0  0  0  0  0  0  0  0  0
   11.7427   -2.3115    1.2834 C   0  0  0  0  0  0  0  0  0  0  0  0
   10.9426   -2.4787    0.5531 H   0  0  0  0  0  0  0  0  0  0  0  0
   11.7309   -1.2535    1.5660 H   0  0  0  0  0  0  0  0  0  0  0  0
   11.5185   -2.9113    2.1727 H   0  0  0  0  0  0  0  0  0  0  0  0
   14.2524   -2.6039    1.3901 C   0  0  0  0  0  0  0  0  0  0  0  0
   14.4332   -2.2578    2.6935 N   0  0  0  0  0  0  0  0  0  0  0  0
   13.6199   -2.1193    3.2904 H   0  0  0  0  0  0  0  0  0  0  0  0
   15.3678   -2.3107    3.0946 H   0  0  0  0  0  0  0  0  0  0  0  0
   15.2572   -2.9060    0.6368 N   0  0  0  0  0  4  0  0  0  0  0  0
   16.2175   -2.9890    0.9724 H   0  0  0  0  0  0  0  0  0  0  0  0
   14.3299   -5.5194   -1.7476 C   0  0  0  0  0  0  0  0  0  0  0  0
   13.3802   -5.1338   -2.1075 H   0  0  0  0  0  0  0  0  0  0  0  0
   14.6497   -6.8661   -1.9653 C   0  0  0  0  0  0  0  0  0  0  0  0
   13.9536   -7.5108   -2.4936 H   0  0  0  0  0  0  0  0  0  0  0  0
  1  2  1  0
  2  3  2  0
  3  4  1  0
  3  5  1  0
  5  6  1  0
  5  7  2  0
  7  8  1  0
  8  9  1  0
  9 10  2  0
 10 11  1  0
 10 12  1  0
 12 13  1  0
 12 14  2  0
 14 15  1  0
 14 16  1  0
 16 17  1  0
 17 18  2  0
 18 19  1  0
 18 20  1  0
 20 21  1  0
 20 22  2  0
 22 23  1  0
 22 24  1  0
 24 25  1  0
 25 26  2  0
 25 27  1  0
 27 28  1  0
 27 29  1  0
 27 30  1  0
 24 31  2  0
 31 32  1  0
 16 33  2  0
 33 34  1  0
  8 35  1  0
 35 36  2  0
 35 37  1  0
 37 38  1  0
 38 39  1  0
 38 40  1  0
 38 41  1  0
 37 42  1  0
 42 43  1  0
 43 44  1  0
 43 45  1  0
 42 46  2  0
 46 47  1  0
  7 48  1  0
 48 49  1  0
 48 50  2  0
 50 51  1  0
 50  2  1  0
 46  8  1  0
 33  9  1  0
 31 17  1  0
M  CHG  1  46   1
M  END
>  <score>  (106) 
5.8972

$$$$

     RDKit          3D

 47 50  0  0  0  0  0  0  0  0999 V2000
   16.1073   -8.4706   -1.6144 H   0  0  0  0  0  0  0  0  0  0  0  0
   15.8589   -7.4215   -1.4801 C   0  0  0  0  0  0  0  0  0  0  0  0
   16.7382   -6.5713   -0.8044 C   0  0  0  0  0  0  0  0  0  0  0  0
   17.6732   -6.9592   -0.4122 H   0  0  0  0  0  0  0  0  0  0  0  0
   16.4004   -5.2277   -0.6057 C   0  0  0  0  0  0  0  0  0  0  0  0
   17.0756   -4.5767   -0.0586 H   0  0  0  0  0  0  0  0  0  0  0  0
   15.1833   -4.7062   -1.0744 C   0  0  0  0  0  0  0  0  0  0  0  0
   14.8197   -3.2483   -0.7760 C   0  0  0  0  0  0  0  0  0  0  0  0
   15.3813   -2.2400   -1.7794 C   0  0  0  0  0  0  0  0  0  0  0  0
   15.9412   -2.6423   -3.0038 C   0  0  0  0  0  0  0  0  0  0  0  0
   15.9934   -3.7008   -3.2432 H   0  0  0  0  0  0  0  0  0  0  0  0
   16.4243   -1.6928   -3.9145 C   0  0  0  0  0  0  0  0  0  0  0  0
   16.8474   -2.0081   -4.8625 H   0  0  0  0  0  0  0  0  0  0  0  0
   16.3550   -0.3284   -3.6108 C   0  0  0  0  0  0  0  0  0  0  0  0
   16.7259    0.4085   -4.3168 H   0  0  0  0  0  0  0  0  0  0  0  0
   15.7945    0.1048   -2.4036 C   0  0  0  0  0  0  0  0  0  0  0  0
   15.7175    1.5418   -2.0933 C   0  0  0  0  0  0  0  0  0  0  0  0
   16.7541    2.4149   -2.4442 C   0  0  0  0  0  0  0  0  0  0  0  0
   17.6316    2.0005   -2.9289 H   0  0  0  0  0  0  0  0  0  0  0  0
   16.6762    3.7831   -2.1438 C   0  0  0  0  0  0  0  0  0  0  0  0
   17.4999    4.4364   -2.4131 H   0  0  0  0  0  0  0  0  0  0  0  0
   15.5468    4.2971   -1.4891 C   0  0  0  0  0  0  0  0  0  0  0  0
   15.4934    5.3590   -1.2556 H   0  0  0  0  0  0  0  0  0  0  0  0
   14.5013    3.4232   -1.1329 C   0  0  0  0  0  0  0  0  0  0  0  0
   13.3059    3.8319   -0.4648 C   0  0  0  0  0  0  0  0  0  0  0  0
   12.2901    4.0334    0.0646 N   0  0  0  0  0  0  0  0  0  0  0  0
   14.6047    2.0625   -1.4336 C   0  0  0  0  0  0  0  0  0  0  0  0
   13.7962    1.3934   -1.1570 H   0  0  0  0  0  0  0  0  0  0  0  0
   15.3068   -0.8585   -1.5041 C   0  0  0  0  0  0  0  0  0  0  0  0
   14.8741   -0.5260   -0.5653 H   0  0  0  0  0  0  0  0  0  0  0  0
   13.2989   -3.0404   -0.5964 C   0  0  0  0  0  0  0  0  0  0  0  0
   12.4377   -3.1156   -1.4695 O   0  0  0  0  0  0  0  0  0  0  0  0
   13.0246   -2.6814    0.7104 N   0  0  0  0  0  0  0  0  0  0  0  0
   11.7192   -2.3131    1.2719 C   0  0  0  0  0  0  0  0  0  0  0  0
   10.9153   -2.4786    0.5397 H   0  0  0  0  0  0  0  0  0  0  0  0
   11.5043   -2.9214    2.1615 H   0  0  0  0  0  0  0  0  0  0  0  0
   11.7086   -1.2517    1.5574 H   0  0  0  0  0  0  0  0  0  0  0  0
   14.2356   -2.6239    1.3666 C   0  0  0  0  0  0  0  0  0  0  0  0
   14.4040   -2.3115    2.6805 N   0  0  0  0  0  0  0  0  0  0  0  0
   15.3423   -2.3405    3.0836 H   0  0  0  0  0  0  0  0  0  0  0  0
   13.5905   -2.1238    3.2642 H   0  0  0  0  0  0  0  0  0  0  0  0
   15.2397   -2.9080    0.6030 N   0  0  0  0  0  4  0  0  0  0  0  0
   16.2092   -2.9431    0.9312 H   0  0  0  0  0  0  0  0  0  0  0  0
   14.3127   -5.5714   -1.7686 C   0  0  0  0  0  0  0  0  0  0  0  0
   13.3596   -5.1991   -2.1317 H   0  0  0  0  0  0  0  0  0  0  0  0
   14.6473   -6.9212   -1.9663 C   0  0  0  0  0  0  0  0  0  0  0  0
   13.9636   -7.5857   -2.4872 H   0  0  0  0  0  0  0  0  0  0  0  0
  1  2  1  0
  2  3  2  0
  3  4  1  0
  3  5  1  0
  5  6  1  0
  5  7  2  0
  7  8  1  0
  8  9  1  0
  9 10  2  0
 10 11  1  0
 10 12  1  0
 12 13  1  0
 12 14  2  0
 14 15  1  0
 14 16  1  0
 16 17  1  0
 17 18  2  0
 18 19  1  0
 18 20  1  0
 20 21  1  0
 20 22  2  0
 22 23  1  0
 22 24  1  0
 24 25  1  0
 25 26  3  0
 24 27  2  0
 27 28  1  0
 16 29  2  0
 29 30  1  0
  8 31  1  0
 31 32  2  0
 31 33  1  0
 33 34  1  0
 34 35  1  0
 34 36  1  0
 34 37  1  0
 33 38  1  0
 38 39  1  0
 39 40  1  0
 39 41  1  0
 38 42  2  0
 42 43  1  0
  7 44  1  0
 44 45  1  0
 44 46  2  0
 46 47  1  0
 46  2  1  0
 42  8  1  0
 29  9  1  0
 27 17  1  0
M  CHG  1  42   1
M  END
>  <score>  (107) 
5.89131

$$$$

     RDKit          3D

 51 54  0  0  0  0  0  0  0  0999 V2000
   16.1700   -8.5247   -1.7907 H   0  0  0  0  0  0  0  0  0  0  0  0
   15.9150   -7.4982   -1.5479 C   0  0  0  0  0  0  0  0  0  0  0  0
   16.8115   -6.7049   -0.8223 C   0  0  0  0  0  0  0  0  0  0  0  0
   17.7738   -7.1018   -0.5117 H   0  0  0  0  0  0  0  0  0  0  0  0
   16.4686   -5.3906   -0.4930 C   0  0  0  0  0  0  0  0  0  0  0  0
   17.1649   -4.7655    0.0597 H   0  0  0  0  0  0  0  0  0  0  0  0
   15.2297   -4.8630   -0.8794 C   0  0  0  0  0  0  0  0  0  0  0  0
   14.8937   -3.4206   -0.5991 C   0  0  0  0  0  0  0  0  0  0  0  0
   15.4682   -2.5568   -1.7006 C   0  0  0  0  0  0  0  0  0  0  0  0
   15.9025   -3.0406   -2.9516 C   0  0  0  0  0  0  0  0  0  0  0  0
   15.9015   -4.1092   -3.1586 H   0  0  0  0  0  0  0  0  0  0  0  0
   16.3497   -2.1382   -3.9248 C   0  0  0  0  0  0  0  0  0  0  0  0
   16.6920   -2.4951   -4.8838 H   0  0  0  0  0  0  0  0  0  0  0  0
   16.3446   -0.7626   -3.6742 C   0  0  0  0  0  0  0  0  0  0  0  0
   16.6952   -0.0745   -4.4354 H   0  0  0  0  0  0  0  0  0  0  0  0
   15.8808   -0.2870   -2.4409 C   0  0  0  0  0  0  0  0  0  0  0  0
   15.7561    1.1189   -2.0900 C   0  0  0  0  0  0  0  0  0  0  0  0
   15.8939    1.4965   -0.7513 C   0  0  0  0  0  0  0  0  0  0  0  0
   16.1098    0.7468    0.0040 H   0  0  0  0  0  0  0  0  0  0  0  0
   15.7771    2.8245   -0.3763 C   0  0  0  0  0  0  0  0  0  0  0  0
   15.9442    3.0719    0.6681 H   0  0  0  0  0  0  0  0  0  0  0  0
   15.5027    3.8095   -1.3379 C   0  0  0  0  0  0  0  0  0  0  0  0
   15.4369    5.2094   -0.9286 C   0  0  0  0  0  0  0  0  0  0  0  0
   15.5002    6.1109   -1.7485 O   0  0  0  0  0  0  0  0  0  0  0  0
   15.3077    5.5766    0.5376 C   0  0  0  0  0  0  0  0  0  0  0  0
   15.7313    4.7873    1.1647 H   0  0  0  0  0  0  0  0  0  0  0  0
   14.2551    5.7086    0.7908 H   0  0  0  0  0  0  0  0  0  0  0  0
   15.8354    6.5095    0.7423 H   0  0  0  0  0  0  0  0  0  0  0  0
   15.3245    3.4304   -2.6788 C   0  0  0  0  0  0  0  0  0  0  0  0
   15.1054    4.1716   -3.4447 H   0  0  0  0  0  0  0  0  0  0  0  0
   15.4439    2.0894   -3.0403 C   0  0  0  0  0  0  0  0  0  0  0  0
   15.2755    1.7885   -4.0633 H   0  0  0  0  0  0  0  0  0  0  0  0
   15.4791   -1.1925   -1.4739 C   0  0  0  0  0  0  0  0  0  0  0  0
   15.1193   -0.8151   -0.5219 H   0  0  0  0  0  0  0  0  0  0  0  0
   13.3832   -3.1546   -0.4283 C   0  0  0  0  0  0  0  0  0  0  0  0
   12.5068   -3.3440   -1.2654 O   0  0  0  0  0  0  0  0  0  0  0  0
   13.1321   -2.6214    0.8232 N   0  0  0  0  0  0  0  0  0  0  0  0
   11.8194   -2.2658    1.3679 C   0  0  0  0  0  0  0  0  0  0  0  0
   11.0294   -2.4600    0.6321 H   0  0  0  0  0  0  0  0  0  0  0  0
   11.5992   -2.8560    2.2648 H   0  0  0  0  0  0  0  0  0  0  0  0
   11.7802   -1.2038    1.6355 H   0  0  0  0  0  0  0  0  0  0  0  0
   14.3435   -2.5471    1.4720 C   0  0  0  0  0  0  0  0  0  0  0  0
   14.5203   -2.0875    2.7432 N   0  0  0  0  0  0  0  0  0  0  0  0
   13.6965   -2.0504    3.3398 H   0  0  0  0  0  0  0  0  0  0  0  0
   15.4298   -2.2609    3.1712 H   0  0  0  0  0  0  0  0  0  0  0  0
   15.3231   -2.9850    0.7506 N   0  0  0  0  0  4  0  0  0  0  0  0
   16.2972   -2.9811    1.0579 H   0  0  0  0  0  0  0  0  0  0  0  0
   14.3575   -5.6477   -1.6469 C   0  0  0  0  0  0  0  0  0  0  0  0
   13.4238   -5.2224   -2.0047 H   0  0  0  0  0  0  0  0  0  0  0  0
   14.6955   -6.9627   -1.9765 C   0  0  0  0  0  0  0  0  0  0  0  0
   14.0115   -7.5617   -2.5694 H   0  0  0  0  0  0  0  0  0  0  0  0
  1  2  1  0
  2  3  2  0
  3  4  1  0
  3  5  1  0
  5  6  1  0
  5  7  2  0
  7  8  1  0
  8  9  1  0
  9 10  2  0
 10 11  1  0
 10 12  1  0
 12 13  1  0
 12 14  2  0
 14 15  1  0
 14 16  1  0
 16 17  1  0
 17 18  2  0
 18 19  1  0
 18 20  1  0
 20 21  1  0
 20 22  2  0
 22 23  1  0
 23 24  2  0
 23 25  1  0
 25 26  1  0
 25 27  1  0
 25 28  1  0
 22 29  1  0
 29 30  1  0
 29 31  2  0
 31 32  1  0
 16 33  2  0
 33 34  1  0
  8 35  1  0
 35 36  2  0
 35 37  1  0
 37 38  1  0
 38 39  1  0
 38 40  1  0
 38 41  1  0
 37 42  1  0
 42 43  1  0
 43 44  1  0
 43 45  1  0
 42 46  2  0
 46 47  1  0
  7 48  1  0
 48 49  1  0
 48 50  2  0
 50 51  1  0
 50  2  1  0
 46  8  1  0
 33  9  1  0
 31 17  1  0
M  CHG  1  46   1
M  END
>  <score>  (108) 
5.88337

$$$$

     RDKit          3D

 55 58  0  0  0  0  0  0  0  0999 V2000
   16.1003   -8.4646   -1.6154 H   0  0  0  0  0  0  0  0  0  0  0  0
   15.8581   -7.4127   -1.4848 C   0  0  0  0  0  0  0  0  0  0  0  0
   16.7404   -6.5654   -0.8086 C   0  0  0  0  0  0  0  0  0  0  0  0
   17.6689   -6.9608   -0.4090 H   0  0  0  0  0  0  0  0  0  0  0  0
   16.4101   -5.2179   -0.6128 C   0  0  0  0  0  0  0  0  0  0  0  0
   17.0727   -4.5654   -0.0512 H   0  0  0  0  0  0  0  0  0  0  0  0
   15.1973   -4.6904   -1.0814 C   0  0  0  0  0  0  0  0  0  0  0  0
   14.8315   -3.2343   -0.7646 C   0  0  0  0  0  0  0  0  0  0  0  0
   15.3712   -2.2011   -1.7491 C   0  0  0  0  0  0  0  0  0  0  0  0
   15.9216   -2.6058   -2.9738 C   0  0  0  0  0  0  0  0  0  0  0  0
   15.9818   -3.6638   -3.2121 H   0  0  0  0  0  0  0  0  0  0  0  0
   16.4003   -1.6674   -3.8899 C   0  0  0  0  0  0  0  0  0  0  0  0
   16.8359   -1.9806   -4.8327 H   0  0  0  0  0  0  0  0  0  0  0  0
   16.3187   -0.3074   -3.5893 C   0  0  0  0  0  0  0  0  0  0  0  0
   16.6999    0.4411   -4.2733 H   0  0  0  0  0  0  0  0  0  0  0  0
   15.7573    0.1407   -2.3991 C   0  0  0  0  0  0  0  0  0  0  0  0
   15.7332    1.5071   -2.2424 O   0  0  0  0  0  0  0  0  0  0  0  0
   15.1317    2.0575   -1.0646 C   0  0  0  0  0  0  0  0  0  0  0  0
   15.4601    1.4755   -0.1972 H   0  0  0  0  0  0  0  0  0  0  0  0
   13.6068    2.0149   -1.1482 C   0  0  0  0  0  0  0  0  0  0  0  0
   13.2824    0.9781   -1.2731 H   0  0  0  0  0  0  0  0  0  0  0  0
   13.1936    2.4038   -0.2132 H   0  0  0  0  0  0  0  0  0  0  0  0
   13.0911    2.8719   -2.3011 C   0  0  0  0  0  0  0  0  0  0  0  0
   13.4258    2.4350   -3.2498 H   0  0  0  0  0  0  0  0  0  0  0  0
   11.9957    2.8841   -2.2854 H   0  0  0  0  0  0  0  0  0  0  0  0
   13.5770    4.2549   -2.1890 N   0  0  0  0  0  0  0  0  0  0  0  0
   12.9468    5.1351   -3.1874 C   0  0  0  0  0  0  0  0  0  0  0  0
   13.2134    6.1657   -2.9893 H   0  0  0  0  0  0  0  0  0  0  0  0
   13.2788    4.8741   -4.1983 H   0  0  0  0  0  0  0  0  0  0  0  0
   11.8559    5.0556   -3.1405 H   0  0  0  0  0  0  0  0  0  0  0  0
   15.0467    4.3840   -2.0859 C   0  0  0  0  0  0  0  0  0  0  0  0
   15.5254    4.0602   -3.0185 H   0  0  0  0  0  0  0  0  0  0  0  0
   15.3153    5.4342   -1.9171 H   0  0  0  0  0  0  0  0  0  0  0  0
   15.5814    3.5239   -0.9324 C   0  0  0  0  0  0  0  0  0  0  0  0
   16.6761    3.5751   -0.9190 H   0  0  0  0  0  0  0  0  0  0  0  0
   15.2033    3.9298    0.0115 H   0  0  0  0  0  0  0  0  0  0  0  0
   15.2844   -0.8115   -1.4750 C   0  0  0  0  0  0  0  0  0  0  0  0
   14.8601   -0.4598   -0.5400 H   0  0  0  0  0  0  0  0  0  0  0  0
   13.3153   -3.0334   -0.5907 C   0  0  0  0  0  0  0  0  0  0  0  0
   12.4593   -3.1208   -1.4654 O   0  0  0  0  0  0  0  0  0  0  0  0
   13.0303   -2.6824    0.7125 N   0  0  0  0  0  0  0  0  0  0  0  0
   11.7236   -2.3134    1.2701 C   0  0  0  0  0  0  0  0  0  0  0  0
   10.9159   -2.4801    0.5437 H   0  0  0  0  0  0  0  0  0  0  0  0
   11.7100   -1.2533    1.5535 H   0  0  0  0  0  0  0  0  0  0  0  0
   11.5106   -2.9158    2.1619 H   0  0  0  0  0  0  0  0  0  0  0  0
   14.2395   -2.6246    1.3714 C   0  0  0  0  0  0  0  0  0  0  0  0
   14.4100   -2.3000    2.6782 N   0  0  0  0  0  0  0  0  0  0  0  0
   13.5948   -2.1234    3.2597 H   0  0  0  0  0  0  0  0  0  0  0  0
   15.3468   -2.3351    3.0807 H   0  0  0  0  0  0  0  0  0  0  0  0
   15.2454   -2.9148    0.6171 N   0  0  0  0  0  4  0  0  0  0  0  0
   16.2103   -2.9646    0.9502 H   0  0  0  0  0  0  0  0  0  0  0  0
   14.3190   -5.5548   -1.7676 C   0  0  0  0  0  0  0  0  0  0  0  0
   13.3615   -5.1790   -2.1153 H   0  0  0  0  0  0  0  0  0  0  0  0
   14.6479   -6.9071   -1.9681 C   0  0  0  0  0  0  0  0  0  0  0  0
   13.9624   -7.5732   -2.4857 H   0  0  0  0  0  0  0  0  0  0  0  0
  1  2  1  0
  2  3  2  0
  3  4  1  0
  3  5  1  0
  5  6  1  0
  5  7  2  0
  7  8  1  0
  8  9  1  0
  9 10  2  0
 10 11  1  0
 10 12  1  0
 12 13  1  0
 12 14  2  0
 14 15  1  0
 14 16  1  0
 16 17  1  0
 17 18  1  0
 18 19  1  0
 18 20  1  0
 20 21  1  0
 20 22  1  0
 20 23  1  0
 23 24  1  0
 23 25  1  0
 23 26  1  0
 26 27  1  0
 27 28  1  0
 27 29  1  0
 27 30  1  0
 26 31  1  0
 31 32  1  0
 31 33  1  0
 31 34  1  0
 34 35  1  0
 34 36  1  0
 16 37  2  0
 37 38  1  0
  8 39  1  0
 39 40  2  0
 39 41  1  0
 41 42  1  0
 42 43  1  0
 42 44  1  0
 42 45  1  0
 41 46  1  0
 46 47  1  0
 47 48  1  0
 47 49  1  0
 46 50  2  0
 50 51  1  0
  7 52  1  0
 52 53  1  0
 52 54  2  0
 54 55  1  0
 54  2  1  0
 50  8  1  0
 37  9  1  0
 34 18  1  0
M  CHG  1  50   1
M  END
>  <score>  (109) 
5.883

$$$$

     RDKit          3D

 52 55  0  0  0  0  0  0  0  0999 V2000
   12.5458  -14.4580    1.2949 H   0  0  0  0  0  0  0  0  0  0  0  0
   12.8186  -13.5146    0.8205 C   0  0  0  0  0  0  0  0  0  0  0  0
   14.0450  -12.9022    1.1322 C   0  0  0  0  0  0  0  0  0  0  0  0
   14.7244  -13.3538    1.8518 H   0  0  0  0  0  0  0  0  0  0  0  0
   14.3816  -11.6631    0.5693 C   0  0  0  0  0  0  0  0  0  0  0  0
   15.3185  -11.1680    0.8199 H   0  0  0  0  0  0  0  0  0  0  0  0
   13.5104  -11.0252   -0.3114 C   0  0  0  0  0  0  0  0  0  0  0  0
   13.8977   -9.7825   -0.8158 N   0  0  0  0  0  0  0  0  0  0  0  0
   14.4578   -9.1809   -0.2223 H   0  0  0  0  0  0  0  0  0  0  0  0
   13.5114   -9.2830   -2.0436 C   0  0  0  0  0  0  0  0  0  0  0  0
   13.0487  -10.0131   -2.9033 O   0  0  0  0  0  0  0  0  0  0  0  0
   13.6983   -7.9617   -2.3984 N   0  0  0  0  0  0  0  0  0  0  0  0
   13.3219   -7.7160   -3.3065 H   0  0  0  0  0  0  0  0  0  0  0  0
   14.5885   -7.0619   -1.8124 C   0  0  0  0  0  0  0  0  0  0  0  0
   15.8232   -7.5175   -1.3495 C   0  0  0  0  0  0  0  0  0  0  0  0
   16.0669   -8.5669   -1.4698 H   0  0  0  0  0  0  0  0  0  0  0  0
   16.7342   -6.6317   -0.7693 C   0  0  0  0  0  0  0  0  0  0  0  0
   17.7071   -6.9784   -0.4315 H   0  0  0  0  0  0  0  0  0  0  0  0
   16.3934   -5.2868   -0.6154 C   0  0  0  0  0  0  0  0  0  0  0  0
   17.0962   -4.6165   -0.1317 H   0  0  0  0  0  0  0  0  0  0  0  0
   15.1600   -4.7860   -1.0573 C   0  0  0  0  0  0  0  0  0  0  0  0
   14.8158   -3.3167   -0.7669 C   0  0  0  0  0  0  0  0  0  0  0  0
   15.3806   -2.2990   -1.7628 C   0  0  0  0  0  0  0  0  0  0  0  0
   15.9355   -2.6874   -2.9945 C   0  0  0  0  0  0  0  0  0  0  0  0
   15.9943   -3.7403   -3.2505 H   0  0  0  0  0  0  0  0  0  0  0  0
   16.4124   -1.7311   -3.9033 C   0  0  0  0  0  0  0  0  0  0  0  0
   16.8361   -2.0417   -4.8516 H   0  0  0  0  0  0  0  0  0  0  0  0
   16.3453   -0.3692   -3.5997 C   0  0  0  0  0  0  0  0  0  0  0  0
   16.7215    0.3684   -4.3048 H   0  0  0  0  0  0  0  0  0  0  0  0
   15.7897    0.0364   -2.3851 C   0  0  0  0  0  0  0  0  0  0  0  0
   15.7311    1.0943   -2.1457 H   0  0  0  0  0  0  0  0  0  0  0  0
   15.3081   -0.9184   -1.4797 C   0  0  0  0  0  0  0  0  0  0  0  0
   14.8735   -0.5769   -0.5441 H   0  0  0  0  0  0  0  0  0  0  0  0
   13.3029   -3.1044   -0.5815 C   0  0  0  0  0  0  0  0  0  0  0  0
   12.4316   -3.2308   -1.4398 O   0  0  0  0  0  0  0  0  0  0  0  0
   13.0459   -2.7028    0.7162 N   0  0  0  0  0  0  0  0  0  0  0  0
   11.7500   -2.3192    1.2764 C   0  0  0  0  0  0  0  0  0  0  0  0
   11.5263   -2.9137    2.1698 H   0  0  0  0  0  0  0  0  0  0  0  0
   11.7506   -1.2591    1.5553 H   0  0  0  0  0  0  0  0  0  0  0  0
   10.9448   -2.4809    0.5498 H   0  0  0  0  0  0  0  0  0  0  0  0
   14.2574   -2.6284    1.3668 C   0  0  0  0  0  0  0  0  0  0  0  0
   14.4419   -2.2430    2.6630 N   0  0  0  0  0  0  0  0  0  0  0  0
   15.3740   -2.3118    3.0696 H   0  0  0  0  0  0  0  0  0  0  0  0
   13.6290   -2.1195    3.2642 H   0  0  0  0  0  0  0  0  0  0  0  0
   15.2457   -2.9680    0.6078 N   0  0  0  0  0  4  0  0  0  0  0  0
   16.2167   -3.0065    0.9244 H   0  0  0  0  0  0  0  0  0  0  0  0
   14.2741   -5.6910   -1.6989 C   0  0  0  0  0  0  0  0  0  0  0  0
   13.3142   -5.3499   -2.0757 H   0  0  0  0  0  0  0  0  0  0  0  0
   12.2775  -11.6260   -0.6228 C   0  0  0  0  0  0  0  0  0  0  0  0
   11.5842  -11.1025   -1.2793 H   0  0  0  0  0  0  0  0  0  0  0  0
   11.9321  -12.8677   -0.0583 C   0  0  0  0  0  0  0  0  0  0  0  0
   10.9545  -13.3009   -0.2587 H   0  0  0  0  0  0  0  0  0  0  0  0
  1  2  1  0
  2  3  2  0
  3  4  1  0
  3  5  1  0
  5  6  1  0
  5  7  2  0
  7  8  1  0
  8  9  1  0
  8 10  1  0
 10 11  2  0
 10 12  1  0
 12 13  1  0
 12 14  1  0
 14 15  2  0
 15 16  1  0
 15 17  1  0
 17 18  1  0
 17 19  2  0
 19 20  1  0
 19 21  1  0
 21 22  1  0
 22 23  1  0
 23 24  2  0
 24 25  1  0
 24 26  1  0
 26 27  1  0
 26 28  2  0
 28 29  1  0
 28 30  1  0
 30 31  1  0
 30 32  2  0
 32 33  1  0
 22 34  1  0
 34 35  2  0
 34 36  1  0
 36 37  1  0
 37 38  1  0
 37 39  1  0
 37 40  1  0
 36 41  1  0
 41 42  1  0
 42 43  1  0
 42 44  1  0
 41 45  2  0
 45 46  1  0
 21 47  2  0
 47 48  1  0
  7 49  1  0
 49 50  1  0
 49 51  2  0
 51 52  1  0
 51  2  1  0
 47 14  1  0
 45 22  1  0
 32 23  1  0
M  CHG  1  45   1
M  END
>  <score>  (110) 
5.87675

$$$$

     RDKit          3D

 39 41  0  0  0  0  0  0  0  0999 V2000
   16.1313   -8.4936   -1.6102 H   0  0  0  0  0  0  0  0  0  0  0  0
   15.8561   -7.4523   -1.4661 C   0  0  0  0  0  0  0  0  0  0  0  0
   16.7247   -6.5924   -0.7929 C   0  0  0  0  0  0  0  0  0  0  0  0
   17.6798   -6.9539   -0.4231 H   0  0  0  0  0  0  0  0  0  0  0  0
   16.3758   -5.2509   -0.6027 C   0  0  0  0  0  0  0  0  0  0  0  0
   17.0739   -4.6072   -0.0784 H   0  0  0  0  0  0  0  0  0  0  0  0
   15.1538   -4.7274   -1.0686 C   0  0  0  0  0  0  0  0  0  0  0  0
   14.7979   -3.2511   -0.7879 C   0  0  0  0  0  0  0  0  0  0  0  0
   15.3850   -2.2471   -1.7900 C   0  0  0  0  0  0  0  0  0  0  0  0
   15.9458   -2.6458   -3.0182 C   0  0  0  0  0  0  0  0  0  0  0  0
   16.0126   -3.6979   -3.2816 H   0  0  0  0  0  0  0  0  0  0  0  0
   16.4257   -1.6910   -3.9236 C   0  0  0  0  0  0  0  0  0  0  0  0
   16.8658   -2.0080   -4.8629 H   0  0  0  0  0  0  0  0  0  0  0  0
   16.3470   -0.3269   -3.6278 C   0  0  0  0  0  0  0  0  0  0  0  0
   16.7222    0.3914   -4.3533 H   0  0  0  0  0  0  0  0  0  0  0  0
   15.8014    0.1102   -2.4069 C   0  0  0  0  0  0  0  0  0  0  0  0
   15.7659    1.5886   -2.0471 C   0  0  0  0  0  0  0  0  0  0  0  0
   14.6707    1.8743   -1.2935 F   0  0  0  0  0  0  0  0  0  0  0  0
   15.7248    2.3610   -3.1674 F   0  0  0  0  0  0  0  0  0  0  0  0
   16.8844    1.8986   -1.3419 F   0  0  0  0  0  0  0  0  0  0  0  0
   15.3277   -0.8652   -1.5040 C   0  0  0  0  0  0  0  0  0  0  0  0
   14.9126   -0.5391   -0.5525 H   0  0  0  0  0  0  0  0  0  0  0  0
   13.2819   -3.0144   -0.6183 C   0  0  0  0  0  0  0  0  0  0  0  0
   12.4150   -3.0712   -1.4878 O   0  0  0  0  0  0  0  0  0  0  0  0
   13.0172   -2.6626    0.6973 N   0  0  0  0  0  0  0  0  0  0  0  0
   11.7154   -2.3115    1.2626 C   0  0  0  0  0  0  0  0  0  0  0  0
   11.4994   -2.9243    2.1455 H   0  0  0  0  0  0  0  0  0  0  0  0
   10.9179   -2.4782    0.5337 H   0  0  0  0  0  0  0  0  0  0  0  0
   11.6926   -1.2565    1.5590 H   0  0  0  0  0  0  0  0  0  0  0  0
   14.2197   -2.6320    1.3683 C   0  0  0  0  0  0  0  0  0  0  0  0
   14.3863   -2.3466    2.6933 N   0  0  0  0  0  0  0  0  0  0  0  0
   13.5770   -2.1260    3.2749 H   0  0  0  0  0  0  0  0  0  0  0  0
   15.3208   -2.3620    3.1024 H   0  0  0  0  0  0  0  0  0  0  0  0
   15.2193   -2.9086    0.5890 N   0  0  0  0  0  4  0  0  0  0  0  0
   16.1962   -2.8812    0.8898 H   0  0  0  0  0  0  0  0  0  0  0  0
   14.2953   -5.6083   -1.7705 C   0  0  0  0  0  0  0  0  0  0  0  0
   13.3514   -5.2624   -2.1828 H   0  0  0  0  0  0  0  0  0  0  0  0
   14.6427   -6.9596   -1.9584 C   0  0  0  0  0  0  0  0  0  0  0  0
   13.9731   -7.6306   -2.4899 H   0  0  0  0  0  0  0  0  0  0  0  0
  1  2  1  0
  2  3  2  0
  3  4  1  0
  3  5  1  0
  5  6  1  0
  5  7  2  0
  7  8  1  0
  8  9  1  0
  9 10  2  0
 10 11  1  0
 10 12  1  0
 12 13  1  0
 12 14  2  0
 14 15  1  0
 14 16  1  0
 16 17  1  0
 17 18  1  0
 17 19  1  0
 17 20  1  0
 16 21  2  0
 21 22  1  0
  8 23  1  0
 23 24  2  0
 23 25  1  0
 25 26  1  0
 26 27  1  0
 26 28  1  0
 26 29  1  0
 25 30  1  0
 30 31  1  0
 31 32  1  0
 31 33  1  0
 30 34  2  0
 34 35  1  0
  7 36  1  0
 36 37  1  0
 36 38  2  0
 38 39  1  0
 38  2  1  0
 34  8  1  0
 21  9  1  0
M  CHG  1  34   1
M  END
>  <score>  (111) 
5.87468

$$$$

     RDKit          3D

 51 54  0  0  0  0  0  0  0  0999 V2000
   16.0567   -8.2853   -1.7542 H   0  0  0  0  0  0  0  0  0  0  0  0
   15.8541   -7.2410   -1.5352 C   0  0  0  0  0  0  0  0  0  0  0  0
   16.7852   -6.4756   -0.8296 C   0  0  0  0  0  0  0  0  0  0  0  0
   17.7177   -6.9266   -0.5066 H   0  0  0  0  0  0  0  0  0  0  0  0
   16.5189   -5.1295   -0.5405 C   0  0  0  0  0  0  0  0  0  0  0  0
   17.2601   -4.5477    0.0002 H   0  0  0  0  0  0  0  0  0  0  0  0
   15.3120   -4.5301   -0.9477 C   0  0  0  0  0  0  0  0  0  0  0  0
   15.0032   -3.0514   -0.6635 C   0  0  0  0  0  0  0  0  0  0  0  0
   15.5606   -2.1218   -1.7550 C   0  0  0  0  0  0  0  0  0  0  0  0
   16.0076   -2.6881   -2.9577 C   0  0  0  0  0  0  0  0  0  0  0  0
   16.0165   -3.7677   -3.0657 H   0  0  0  0  0  0  0  0  0  0  0  0
   16.4210   -1.8995   -4.0309 C   0  0  0  0  0  0  0  0  0  0  0  0
   16.7438   -2.3569   -4.9537 H   0  0  0  0  0  0  0  0  0  0  0  0
   16.3999   -0.5132   -3.9266 C   0  0  0  0  0  0  0  0  0  0  0  0
   16.7135    0.1122   -4.7561 H   0  0  0  0  0  0  0  0  0  0  0  0
   15.9684    0.0965   -2.7553 C   0  0  0  0  0  0  0  0  0  0  0  0
   15.9281    1.4917   -2.7967 N   0  0  0  0  0  0  0  0  0  0  0  0
   15.9185    1.9019   -3.7250 H   0  0  0  0  0  0  0  0  0  0  0  0
   15.6116    2.3356   -1.7322 C   0  0  0  0  0  0  0  0  0  0  0  0
   14.9774    3.5634   -1.9620 C   0  0  0  0  0  0  0  0  0  0  0  0
   14.7268    3.8628   -2.9730 H   0  0  0  0  0  0  0  0  0  0  0  0
   14.6439    4.4080   -0.8842 C   0  0  0  0  0  0  0  0  0  0  0  0
   14.1282    5.3496   -1.0419 H   0  0  0  0  0  0  0  0  0  0  0  0
   14.9688    4.0375    0.4270 C   0  0  0  0  0  0  0  0  0  0  0  0
   14.6076    4.8907    1.6144 C   0  0  0  0  0  0  0  0  0  0  0  0
   13.5249    4.9200    1.7720 H   0  0  0  0  0  0  0  0  0  0  0  0
   15.0684    4.5113    2.5367 H   0  0  0  0  0  0  0  0  0  0  0  0
   14.9766    5.8966    1.4328 H   0  0  0  0  0  0  0  0  0  0  0  0
   15.6684    2.8570    0.6319 C   0  0  0  0  0  0  0  0  0  0  0  0
   15.9709    2.6373    1.6388 H   0  0  0  0  0  0  0  0  0  0  0  0
   15.9754    2.0035   -0.4312 C   0  0  0  0  0  0  0  0  0  0  0  0
   16.5238    1.0857   -0.2781 H   0  0  0  0  0  0  0  0  0  0  0  0
   15.5557   -0.7039   -1.6654 C   0  0  0  0  0  0  0  0  0  0  0  0
   15.2156   -0.2132   -0.7607 H   0  0  0  0  0  0  0  0  0  0  0  0
   13.4843   -2.8335   -0.4795 C   0  0  0  0  0  0  0  0  0  0  0  0
   12.5926   -3.0048   -1.3119 O   0  0  0  0  0  0  0  0  0  0  0  0
   13.2211   -2.5334    0.8422 N   0  0  0  0  0  0  0  0  0  0  0  0
   11.9220   -2.2674    1.4624 C   0  0  0  0  0  0  0  0  0  0  0  0
   11.6887   -1.1966    1.4336 H   0  0  0  0  0  0  0  0  0  0  0  0
   11.9327   -2.5878    2.5110 H   0  0  0  0  0  0  0  0  0  0  0  0
   11.1181   -2.8092    0.9522 H   0  0  0  0  0  0  0  0  0  0  0  0
   14.4291   -2.5067    1.4948 C   0  0  0  0  0  0  0  0  0  0  0  0
   14.5645   -2.3352    2.8375 N   0  0  0  0  0  0  0  0  0  0  0  0
   13.7352   -2.0865    3.3688 H   0  0  0  0  0  0  0  0  0  0  0  0
   15.4877   -2.1137    3.2070 H   0  0  0  0  0  0  0  0  0  0  0  0
   15.4336   -2.6976    0.7068 N   0  0  0  0  0  4  0  0  0  0  0  0
   16.3824   -2.8288    1.0555 H   0  0  0  0  0  0  0  0  0  0  0  0
   14.3902   -5.3174   -1.6634 C   0  0  0  0  0  0  0  0  0  0  0  0
   13.4578   -4.8821   -2.0070 H   0  0  0  0  0  0  0  0  0  0  0  0
   14.6565   -6.6599   -1.9510 C   0  0  0  0  0  0  0  0  0  0  0  0
   13.9311   -7.2501   -2.4995 H   0  0  0  0  0  0  0  0  0  0  0  0
  1  2  1  0
  2  3  2  0
  3  4  1  0
  3  5  1  0
  5  6  1  0
  5  7  2  0
  7  8  1  0
  8  9  1  0
  9 10  2  0
 10 11  1  0
 10 12  1  0
 12 13  1  0
 12 14  2  0
 14 15  1  0
 14 16  1  0
 16 17  1  0
 17 18  1  0
 17 19  1  0
 19 20  2  0
 20 21  1  0
 20 22  1  0
 22 23  1  0
 22 24  2  0
 24 25  1  0
 25 26  1  0
 25 27  1  0
 25 28  1  0
 24 29  1  0
 29 30  1  0
 29 31  2  0
 31 32  1  0
 16 33  2  0
 33 34  1  0
  8 35  1  0
 35 36  2  0
 35 37  1  0
 37 38  1  0
 38 39  1  0
 38 40  1  0
 38 41  1  0
 37 42  1  0
 42 43  1  0
 43 44  1  0
 43 45  1  0
 42 46  2  0
 46 47  1  0
  7 48  1  0
 48 49  1  0
 48 50  2  0
 50 51  1  0
 50  2  1  0
 46  8  1  0
 33  9  1  0
 31 19  1  0
M  CHG  1  46   1
M  END
>  <score>  (112) 
5.87292

$$$$

     RDKit          3D

 50 53  0  0  0  0  0  0  0  0999 V2000
   16.1541   -8.3898   -1.7556 H   0  0  0  0  0  0  0  0  0  0  0  0
   15.9083   -7.3549   -1.5334 C   0  0  0  0  0  0  0  0  0  0  0  0
   16.8033   -6.5584   -0.8134 C   0  0  0  0  0  0  0  0  0  0  0  0
   17.7463   -6.9758   -0.4718 H   0  0  0  0  0  0  0  0  0  0  0  0
   16.4839   -5.2245   -0.5254 C   0  0  0  0  0  0  0  0  0  0  0  0
   17.1876   -4.6207    0.0396 H   0  0  0  0  0  0  0  0  0  0  0  0
   15.2657   -4.6619   -0.9472 C   0  0  0  0  0  0  0  0  0  0  0  0
   14.9111   -3.2044   -0.6292 C   0  0  0  0  0  0  0  0  0  0  0  0
   15.4443   -2.2065   -1.6588 C   0  0  0  0  0  0  0  0  0  0  0  0
   15.9283   -2.6446   -2.8980 C   0  0  0  0  0  0  0  0  0  0  0  0
   15.9527   -3.7085   -3.1137 H   0  0  0  0  0  0  0  0  0  0  0  0
   16.3848   -1.7273   -3.8465 C   0  0  0  0  0  0  0  0  0  0  0  0
   16.7766   -2.0938   -4.7890 H   0  0  0  0  0  0  0  0  0  0  0  0
   16.3420   -0.3528   -3.5893 C   0  0  0  0  0  0  0  0  0  0  0  0
   16.7132    0.3224   -4.3585 H   0  0  0  0  0  0  0  0  0  0  0  0
   15.8338    0.1341   -2.3616 C   0  0  0  0  0  0  0  0  0  0  0  0
   15.7578    1.5945   -2.0564 C   0  0  0  0  0  0  0  0  0  0  0  0
   16.1357    2.4358   -2.8638 O   0  0  0  0  0  0  0  0  0  0  0  0
   15.2787    2.0208   -0.8239 N   0  0  0  0  0  0  0  0  0  0  0  0
   14.9608    1.2968   -0.1937 H   0  0  0  0  0  0  0  0  0  0  0  0
   15.4124    3.2986   -0.2729 C   0  0  0  0  0  0  0  0  0  0  0  0
   15.4716    3.4034    1.1184 C   0  0  0  0  0  0  0  0  0  0  0  0
   15.3873    2.5248    1.7189 H   0  0  0  0  0  0  0  0  0  0  0  0
   15.7147    4.6152    1.7647 C   0  0  0  0  0  0  0  0  0  0  0  0
   15.8517    4.6688    2.8422 H   0  0  0  0  0  0  0  0  0  0  0  0
   15.8499    5.7769    1.0150 C   0  0  0  0  0  0  0  0  0  0  0  0
   16.4143    7.2140    1.8743 Cl  0  0  0  0  0  0  0  0  0  0  0  0
   15.6726    5.7103   -0.3817 C   0  0  0  0  0  0  0  0  0  0  0  0
   15.7130    6.6175   -0.9741 H   0  0  0  0  0  0  0  0  0  0  0  0
   15.5025    4.4696   -1.0324 C   0  0  0  0  0  0  0  0  0  0  0  0
   15.4707    4.4082   -2.1159 H   0  0  0  0  0  0  0  0  0  0  0  0
   15.4038   -0.8197   -1.4101 C   0  0  0  0  0  0  0  0  0  0  0  0
   15.0247   -0.4787   -0.4489 H   0  0  0  0  0  0  0  0  0  0  0  0
   13.3921   -3.0086   -0.4446 C   0  0  0  0  0  0  0  0  0  0  0  0
   12.5144   -3.2010   -1.2842 O   0  0  0  0  0  0  0  0  0  0  0  0
   13.1306   -2.5764    0.8395 N   0  0  0  0  0  0  0  0  0  0  0  0
   11.8192   -2.2511    1.4048 C   0  0  0  0  0  0  0  0  0  0  0  0
   11.7681   -1.1908    1.6776 H   0  0  0  0  0  0  0  0  0  0  0  0
   11.6258   -2.8529    2.3003 H   0  0  0  0  0  0  0  0  0  0  0  0
   11.0204   -2.4544    0.6817 H   0  0  0  0  0  0  0  0  0  0  0  0
   14.3409   -2.4945    1.4882 C   0  0  0  0  0  0  0  0  0  0  0  0
   14.5056   -2.1052    2.7824 N   0  0  0  0  0  0  0  0  0  0  0  0
   15.4149   -2.2690    3.2096 H   0  0  0  0  0  0  0  0  0  0  0  0
   13.6774   -2.0581    3.3739 H   0  0  0  0  0  0  0  0  0  0  0  0
   15.3379   -2.8376    0.7386 N   0  0  0  0  0  4  0  0  0  0  0  0
   16.3081   -2.8630    1.0571 H   0  0  0  0  0  0  0  0  0  0  0  0
   14.3810   -5.4770   -1.6828 C   0  0  0  0  0  0  0  0  0  0  0  0
   13.4334   -5.0771   -2.0302 H   0  0  0  0  0  0  0  0  0  0  0  0
   14.6974   -6.8119   -1.9708 C   0  0  0  0  0  0  0  0  0  0  0  0
   14.0021   -7.4292   -2.5327 H   0  0  0  0  0  0  0  0  0  0  0  0
  1  2  1  0
  2  3  2  0
  3  4  1  0
  3  5  1  0
  5  6  1  0
  5  7  2  0
  7  8  1  0
  8  9  1  0
  9 10  2  0
 10 11  1  0
 10 12  1  0
 12 13  1  0
 12 14  2  0
 14 15  1  0
 14 16  1  0
 16 17  1  0
 17 18  2  0
 17 19  1  0
 19 20  1  0
 19 21  1  0
 21 22  2  0
 22 23  1  0
 22 24  1  0
 24 25  1  0
 24 26  2  0
 26 27  1  0
 26 28  1  0
 28 29  1  0
 28 30  2  0
 30 31  1  0
 16 32  2  0
 32 33  1  0
  8 34  1  0
 34 35  2  0
 34 36  1  0
 36 37  1  0
 37 38  1  0
 37 39  1  0
 37 40  1  0
 36 41  1  0
 41 42  1  0
 42 43  1  0
 42 44  1  0
 41 45  2  0
 45 46  1  0
  7 47  1  0
 47 48  1  0
 47 49  2  0
 49 50  1  0
 49  2  1  0
 45  8  1  0
 32  9  1  0
 30 21  1  0
M  CHG  1  45   1
M  END
>  <score>  (113) 
5.86402

$$$$

     RDKit          3D

 46 49  0  0  0  0  0  0  0  0999 V2000
   16.1238   -8.4883   -1.6111 H   0  0  0  0  0  0  0  0  0  0  0  0
   15.8528   -7.4437   -1.4715 C   0  0  0  0  0  0  0  0  0  0  0  0
   16.7273   -6.5856   -0.8010 C   0  0  0  0  0  0  0  0  0  0  0  0
   17.6735   -6.9552   -0.4179 H   0  0  0  0  0  0  0  0  0  0  0  0
   16.3907   -5.2404   -0.6118 C   0  0  0  0  0  0  0  0  0  0  0  0
   17.0668   -4.5896   -0.0651 H   0  0  0  0  0  0  0  0  0  0  0  0
   15.1720   -4.7186   -1.0732 C   0  0  0  0  0  0  0  0  0  0  0  0
   14.8139   -3.2533   -0.7838 C   0  0  0  0  0  0  0  0  0  0  0  0
   15.3900   -2.2474   -1.7800 C   0  0  0  0  0  0  0  0  0  0  0  0
   15.9411   -2.6404   -3.0090 C   0  0  0  0  0  0  0  0  0  0  0  0
   16.0046   -3.6925   -3.2617 H   0  0  0  0  0  0  0  0  0  0  0  0
   16.4185   -1.6903   -3.9206 C   0  0  0  0  0  0  0  0  0  0  0  0
   16.8591   -2.0057   -4.8600 H   0  0  0  0  0  0  0  0  0  0  0  0
   16.3401   -0.3271   -3.6261 C   0  0  0  0  0  0  0  0  0  0  0  0
   16.7097    0.4060   -4.3379 H   0  0  0  0  0  0  0  0  0  0  0  0
   15.7937    0.1025   -2.4089 C   0  0  0  0  0  0  0  0  0  0  0  0
   15.7125    1.5460   -2.0885 C   0  0  0  0  0  0  0  0  0  0  0  0
   15.3745    2.4911   -3.0743 C   0  0  0  0  0  0  0  0  0  0  0  0
   15.1556    2.1600   -4.0837 H   0  0  0  0  0  0  0  0  0  0  0  0
   15.2854    3.8575   -2.7642 C   0  0  0  0  0  0  0  0  0  0  0  0
   15.0036    4.5869   -3.5176 H   0  0  0  0  0  0  0  0  0  0  0  0
   15.5461    4.3041   -1.4683 C   0  0  0  0  0  0  0  0  0  0  0  0
   15.4073    5.9976   -1.0748 Cl  0  0  0  0  0  0  0  0  0  0  0  0
   15.8939    3.3809   -0.4819 C   0  0  0  0  0  0  0  0  0  0  0  0
   16.0979    3.7369    0.5237 H   0  0  0  0  0  0  0  0  0  0  0  0
   15.9682    2.0142   -0.7873 C   0  0  0  0  0  0  0  0  0  0  0  0
   16.2421    1.3138   -0.0066 H   0  0  0  0  0  0  0  0  0  0  0  0
   15.3256   -0.8673   -1.5035 C   0  0  0  0  0  0  0  0  0  0  0  0
   14.8954   -0.5281   -0.5676 H   0  0  0  0  0  0  0  0  0  0  0  0
   13.3006   -3.0266   -0.6057 C   0  0  0  0  0  0  0  0  0  0  0  0
   12.4304   -3.0836   -1.4706 O   0  0  0  0  0  0  0  0  0  0  0  0
   13.0238   -2.6736    0.7014 N   0  0  0  0  0  0  0  0  0  0  0  0
   11.7217   -2.3138    1.2609 C   0  0  0  0  0  0  0  0  0  0  0  0
   10.9137   -2.4732    0.5429 H   0  0  0  0  0  0  0  0  0  0  0  0
   11.6925   -1.2641    1.5597 H   0  0  0  0  0  0  0  0  0  0  0  0
   11.5021   -2.9157    2.1439 H   0  0  0  0  0  0  0  0  0  0  0  0
   14.2233   -2.6300    1.3656 C   0  0  0  0  0  0  0  0  0  0  0  0
   14.3951   -2.3336    2.6854 N   0  0  0  0  0  0  0  0  0  0  0  0
   15.3289   -2.3554    3.0932 H   0  0  0  0  0  0  0  0  0  0  0  0
   13.5815   -2.1275    3.2619 H   0  0  0  0  0  0  0  0  0  0  0  0
   15.2181   -2.9048    0.5911 N   0  0  0  0  0  4  0  0  0  0  0  0
   16.1862   -2.9091    0.9019 H   0  0  0  0  0  0  0  0  0  0  0  0
   14.3021   -5.5907   -1.7666 C   0  0  0  0  0  0  0  0  0  0  0  0
   13.3531   -5.2384   -2.1615 H   0  0  0  0  0  0  0  0  0  0  0  0
   14.6427   -6.9420   -1.9614 C   0  0  0  0  0  0  0  0  0  0  0  0
   13.9733   -7.6166   -2.4882 H   0  0  0  0  0  0  0  0  0  0  0  0
  1  2  1  0
  2  3  2  0
  3  4  1  0
  3  5  1  0
  5  6  1  0
  5  7  2  0
  7  8  1  0
  8  9  1  0
  9 10  2  0
 10 11  1  0
 10 12  1  0
 12 13  1  0
 12 14  2  0
 14 15  1  0
 14 16  1  0
 16 17  1  0
 17 18  2  0
 18 19  1  0
 18 20  1  0
 20 21  1  0
 20 22  2  0
 22 23  1  0
 22 24  1  0
 24 25  1  0
 24 26  2  0
 26 27  1  0
 16 28  2  0
 28 29  1  0
  8 30  1  0
 30 31  2  0
 30 32  1  0
 32 33  1  0
 33 34  1  0
 33 35  1  0
 33 36  1  0
 32 37  1  0
 37 38  1  0
 38 39  1  0
 38 40  1  0
 37 41  2  0
 41 42  1  0
  7 43  1  0
 43 44  1  0
 43 45  2  0
 45 46  1  0
 45  2  1  0
 41  8  1  0
 28  9  1  0
 26 17  1  0
M  CHG  1  41   1
M  END
>  <score>  (114) 
5.86314

$$$$

     RDKit          3D

 47 49  0  0  0  0  0  0  0  0999 V2000
   16.1211   -8.4858   -1.6115 H   0  0  0  0  0  0  0  0  0  0  0  0
   15.8537   -7.4403   -1.4727 C   0  0  0  0  0  0  0  0  0  0  0  0
   16.7294   -6.5828   -0.8026 C   0  0  0  0  0  0  0  0  0  0  0  0
   17.6724   -6.9564   -0.4169 H   0  0  0  0  0  0  0  0  0  0  0  0
   16.3920   -5.2385   -0.6107 C   0  0  0  0  0  0  0  0  0  0  0  0
   17.0668   -4.5871   -0.0641 H   0  0  0  0  0  0  0  0  0  0  0  0
   15.1733   -4.7163   -1.0749 C   0  0  0  0  0  0  0  0  0  0  0  0
   14.8156   -3.2536   -0.7845 C   0  0  0  0  0  0  0  0  0  0  0  0
   15.3900   -2.2481   -1.7788 C   0  0  0  0  0  0  0  0  0  0  0  0
   15.9447   -2.6414   -3.0073 C   0  0  0  0  0  0  0  0  0  0  0  0
   16.0028   -3.6939   -3.2577 H   0  0  0  0  0  0  0  0  0  0  0  0
   16.4217   -1.6918   -3.9204 C   0  0  0  0  0  0  0  0  0  0  0  0
   16.8542   -2.0052   -4.8634 H   0  0  0  0  0  0  0  0  0  0  0  0
   16.3415   -0.3278   -3.6259 C   0  0  0  0  0  0  0  0  0  0  0  0
   16.6986    0.4092   -4.3403 H   0  0  0  0  0  0  0  0  0  0  0  0
   15.7881    0.0925   -2.4127 C   0  0  0  0  0  0  0  0  0  0  0  0
   15.6649    1.5672   -2.0998 C   0  0  0  0  0  0  0  0  0  0  0  0
   16.4398    2.1397   -2.6161 H   0  0  0  0  0  0  0  0  0  0  0  0
   15.7898    1.7480   -1.0304 H   0  0  0  0  0  0  0  0  0  0  0  0
   14.2987    2.0729   -2.5349 C   0  0  0  0  0  0  0  0  0  0  0  0
   13.5161    1.5079   -2.0230 H   0  0  0  0  0  0  0  0  0  0  0  0
   14.1760    1.9213   -3.6096 H   0  0  0  0  0  0  0  0  0  0  0  0
   14.1430    3.5002   -2.2276 N   0  0  0  0  0  0  0  0  0  0  0  0
   14.2422    3.6718   -1.2257 H   0  0  0  0  0  0  0  0  0  0  0  0
   12.8970    4.0862   -2.7530 C   0  0  0  0  0  0  0  0  0  0  0  0
   12.0297    3.5710   -2.3283 H   0  0  0  0  0  0  0  0  0  0  0  0
   12.8568    3.9704   -3.8412 H   0  0  0  0  0  0  0  0  0  0  0  0
   12.8267    5.1549   -2.5114 H   0  0  0  0  0  0  0  0  0  0  0  0
   15.3169   -0.8681   -1.5058 C   0  0  0  0  0  0  0  0  0  0  0  0
   14.8884   -0.5290   -0.5689 H   0  0  0  0  0  0  0  0  0  0  0  0
   13.3020   -3.0281   -0.6029 C   0  0  0  0  0  0  0  0  0  0  0  0
   12.4319   -3.0892   -1.4696 O   0  0  0  0  0  0  0  0  0  0  0  0
   13.0248   -2.6758    0.7027 N   0  0  0  0  0  0  0  0  0  0  0  0
   11.7196   -2.3134    1.2633 C   0  0  0  0  0  0  0  0  0  0  0  0
   10.9124   -2.4746    0.5410 H   0  0  0  0  0  0  0  0  0  0  0  0
   11.5031   -2.9173    2.1474 H   0  0  0  0  0  0  0  0  0  0  0  0
   11.6951   -1.2611    1.5591 H   0  0  0  0  0  0  0  0  0  0  0  0
   14.2263   -2.6291    1.3648 C   0  0  0  0  0  0  0  0  0  0  0  0
   14.3952   -2.3302    2.6852 N   0  0  0  0  0  0  0  0  0  0  0  0
   15.3320   -2.3534    3.0915 H   0  0  0  0  0  0  0  0  0  0  0  0
   13.5820   -2.1270    3.2619 H   0  0  0  0  0  0  0  0  0  0  0  0
   15.2204   -2.9059    0.5936 N   0  0  0  0  0  4  0  0  0  0  0  0
   16.1905   -2.9118    0.9063 H   0  0  0  0  0  0  0  0  0  0  0  0
   14.3035   -5.5883   -1.7679 C   0  0  0  0  0  0  0  0  0  0  0  0
   13.3535   -5.2323   -2.1564 H   0  0  0  0  0  0  0  0  0  0  0  0
   14.6429   -6.9393   -1.9618 C   0  0  0  0  0  0  0  0  0  0  0  0
   13.9724   -7.6126   -2.4881 H   0  0  0  0  0  0  0  0  0  0  0  0
  1  2  1  0
  2  3  2  0
  3  4  1  0
  3  5  1  0
  5  6  1  0
  5  7  2  0
  7  8  1  0
  8  9  1  0
  9 10  2  0
 10 11  1  0
 10 12  1  0
 12 13  1  0
 12 14  2  0
 14 15  1  0
 14 16  1  0
 16 17  1  0
 17 18  1  0
 17 19  1  0
 17 20  1  0
 20 21  1  0
 20 22  1  0
 20 23  1  0
 23 24  1  0
 23 25  1  0
 25 26  1  0
 25 27  1  0
 25 28  1  0
 16 29  2  0
 29 30  1  0
  8 31  1  0
 31 32  2  0
 31 33  1  0
 33 34  1  0
 34 35  1  0
 34 36  1  0
 34 37  1  0
 33 38  1  0
 38 39  1  0
 39 40  1  0
 39 41  1  0
 38 42  2  0
 42 43  1  0
  7 44  1  0
 44 45  1  0
 44 46  2  0
 46 47  1  0
 46  2  1  0
 42  8  1  0
 29  9  1  0
M  CHG  1  42   1
M  END
>  <score>  (115) 
5.85995

$$$$

     RDKit          3D

 48 50  0  0  0  0  0  0  0  0999 V2000
   16.0993   -8.4235   -1.6497 H   0  0  0  0  0  0  0  0  0  0  0  0
   15.8570   -7.3770   -1.4882 C   0  0  0  0  0  0  0  0  0  0  0  0
   16.7526   -6.5492   -0.8036 C   0  0  0  0  0  0  0  0  0  0  0  0
   17.6921   -6.9458   -0.4294 H   0  0  0  0  0  0  0  0  0  0  0  0
   16.4388   -5.2031   -0.5921 C   0  0  0  0  0  0  0  0  0  0  0  0
   17.1386   -4.5726   -0.0510 H   0  0  0  0  0  0  0  0  0  0  0  0
   15.2192   -4.6666   -1.0378 C   0  0  0  0  0  0  0  0  0  0  0  0
   14.8481   -3.2194   -0.7266 C   0  0  0  0  0  0  0  0  0  0  0  0
   15.4081   -2.1972   -1.7166 C   0  0  0  0  0  0  0  0  0  0  0  0
   15.9279   -2.5994   -2.9567 C   0  0  0  0  0  0  0  0  0  0  0  0
   15.9680   -3.6551   -3.2106 H   0  0  0  0  0  0  0  0  0  0  0  0
   16.3869   -1.6559   -3.8811 C   0  0  0  0  0  0  0  0  0  0  0  0
   16.7853   -1.9814   -4.8373 H   0  0  0  0  0  0  0  0  0  0  0  0
   16.3328   -0.2935   -3.5796 C   0  0  0  0  0  0  0  0  0  0  0  0
   16.6955    0.4189   -4.3165 H   0  0  0  0  0  0  0  0  0  0  0  0
   15.8280    0.1523   -2.3505 C   0  0  0  0  0  0  0  0  0  0  0  0
   15.7891    1.6025   -2.0692 C   0  0  0  0  0  0  0  0  0  0  0  0
   15.8255    2.0430   -0.8280 N   0  0  0  0  0  0  0  0  0  0  0  0
   15.8105    3.4013   -0.5744 N   0  0  0  0  0  0  0  0  0  0  0  0
   16.0032    4.0690   -1.3160 H   0  0  0  0  0  0  0  0  0  0  0  0
   15.6184    4.0108    0.6505 C   0  0  0  0  0  0  0  0  0  0  0  0
   15.6133    5.6617    0.6941 S   0  0  0  0  0  0  0  0  0  0  0  0
   15.3210    3.2893    1.7762 N   0  0  0  0  0  0  0  0  0  0  0  0
   15.3352    2.2824    1.6644 H   0  0  0  0  0  0  0  0  0  0  0  0
   15.6499    3.6814    2.6540 H   0  0  0  0  0  0  0  0  0  0  0  0
   15.6649    2.5807   -3.2180 C   0  0  0  0  0  0  0  0  0  0  0  0
   16.6133    3.0936   -3.3913 H   0  0  0  0  0  0  0  0  0  0  0  0
   14.9127    3.3327   -2.9706 H   0  0  0  0  0  0  0  0  0  0  0  0
   15.3597    2.0782   -4.1391 H   0  0  0  0  0  0  0  0  0  0  0  0
   15.3607   -0.8137   -1.4295 C   0  0  0  0  0  0  0  0  0  0  0  0
   14.9417   -0.4905   -0.4806 H   0  0  0  0  0  0  0  0  0  0  0  0
   13.3250   -3.0385   -0.5587 C   0  0  0  0  0  0  0  0  0  0  0  0
   12.4580   -3.1988   -1.4161 O   0  0  0  0  0  0  0  0  0  0  0  0
   13.0561   -2.6607    0.7420 N   0  0  0  0  0  0  0  0  0  0  0  0
   11.7514   -2.3060    1.2942 C   0  0  0  0  0  0  0  0  0  0  0  0
   10.9548   -2.4781    0.5619 H   0  0  0  0  0  0  0  0  0  0  0  0
   11.5319   -2.9089    2.1820 H   0  0  0  0  0  0  0  0  0  0  0  0
   11.7331   -1.2474    1.5737 H   0  0  0  0  0  0  0  0  0  0  0  0
   14.2629   -2.5841    1.4017 C   0  0  0  0  0  0  0  0  0  0  0  0
   14.4456   -2.2310    2.7034 N   0  0  0  0  0  0  0  0  0  0  0  0
   15.3802   -2.3010    3.1018 H   0  0  0  0  0  0  0  0  0  0  0  0
   13.6341   -2.1197    3.3084 H   0  0  0  0  0  0  0  0  0  0  0  0
   15.2663   -2.8909    0.6491 N   0  0  0  0  0  4  0  0  0  0  0  0
   16.2304   -2.9632    0.9781 H   0  0  0  0  0  0  0  0  0  0  0  0
   14.3365   -5.5060   -1.7436 C   0  0  0  0  0  0  0  0  0  0  0  0
   13.3914   -5.1175   -2.1107 H   0  0  0  0  0  0  0  0  0  0  0  0
   14.6516   -6.8523   -1.9663 C   0  0  0  0  0  0  0  0  0  0  0  0
   13.9530   -7.4901   -2.5005 H   0  0  0  0  0  0  0  0  0  0  0  0
  1  2  1  0
  2  3  2  0
  3  4  1  0
  3  5  1  0
  5  6  1  0
  5  7  2  0
  7  8  1  0
  8  9  1  0
  9 10  2  0
 10 11  1  0
 10 12  1  0
 12 13  1  0
 12 14  2  0
 14 15  1  0
 14 16  1  0
 16 17  1  0
 17 18  2  3
 18 19  1  0
 19 20  1  0
 19 21  1  0
 21 22  2  0
 21 23  1  0
 23 24  1  0
 23 25  1  0
 17 26  1  0
 26 27  1  0
 26 28  1  0
 26 29  1  0
 16 30  2  0
 30 31  1  0
  8 32  1  0
 32 33  2  0
 32 34  1  0
 34 35  1  0
 35 36  1  0
 35 37  1  0
 35 38  1  0
 34 39  1  0
 39 40  1  0
 40 41  1  0
 40 42  1  0
 39 43  2  0
 43 44  1  0
  7 45  1  0
 45 46  1  0
 45 47  2  0
 47 48  1  0
 47  2  1  0
 43  8  1  0
 30  9  1  0
M  CHG  1  43   1
M  END
>  <score>  (116) 
5.85366

$$$$

     RDKit          3D

 54 57  0  0  0  0  0  0  0  0999 V2000
   16.2022   -8.1807   -1.7267 H   0  0  0  0  0  0  0  0  0  0  0  0
   15.9554   -7.1404   -1.5343 C   0  0  0  0  0  0  0  0  0  0  0  0
   16.8363   -6.3295   -0.8126 C   0  0  0  0  0  0  0  0  0  0  0  0
   17.7745   -6.7356   -0.4480 H   0  0  0  0  0  0  0  0  0  0  0  0
   16.5089   -4.9937   -0.5505 C   0  0  0  0  0  0  0  0  0  0  0  0
   17.2016   -4.3772    0.0138 H   0  0  0  0  0  0  0  0  0  0  0  0
   15.2924   -4.4497   -0.9964 C   0  0  0  0  0  0  0  0  0  0  0  0
   14.8952   -3.0079   -0.6843 C   0  0  0  0  0  0  0  0  0  0  0  0
   15.3050   -2.0176   -1.7773 C   0  0  0  0  0  0  0  0  0  0  0  0
   16.1750   -2.3950   -2.8146 C   0  0  0  0  0  0  0  0  0  0  0  0
   16.6310   -3.3794   -2.8040 H   0  0  0  0  0  0  0  0  0  0  0  0
   16.4632   -1.5229   -3.8679 C   0  0  0  0  0  0  0  0  0  0  0  0
   17.1194   -1.8282   -4.6755 H   0  0  0  0  0  0  0  0  0  0  0  0
   15.8907   -0.2550   -3.9020 C   0  0  0  0  0  0  0  0  0  0  0  0
   16.1186    0.4216   -4.7213 H   0  0  0  0  0  0  0  0  0  0  0  0
   15.0363    0.1671   -2.8805 C   0  0  0  0  0  0  0  0  0  0  0  0
   14.4845    1.5752   -2.9623 C   0  0  0  0  0  0  0  0  0  0  0  0
   13.6512    1.7092   -2.2626 H   0  0  0  0  0  0  0  0  0  0  0  0
   14.1162    1.7792   -3.9725 H   0  0  0  0  0  0  0  0  0  0  0  0
   15.5509    2.5326   -2.6391 N   0  0  0  0  0  0  0  0  0  0  0  0
   16.3936    2.3399   -3.1819 H   0  0  0  0  0  0  0  0  0  0  0  0
   15.8364    2.5218   -1.2045 C   0  0  0  0  0  0  0  0  0  0  0  0
   16.0013    1.4919   -0.8660 H   0  0  0  0  0  0  0  0  0  0  0  0
   14.6870    3.1397   -0.4238 C   0  0  0  0  0  0  0  0  0  0  0  0
   13.9319    2.3839   -0.1969 H   0  0  0  0  0  0  0  0  0  0  0  0
   14.2265    3.9247   -1.0296 H   0  0  0  0  0  0  0  0  0  0  0  0
   15.3204    3.7377    0.8378 C   0  0  0  0  0  0  0  0  0  0  0  0
   15.1511    4.8199    0.8809 H   0  0  0  0  0  0  0  0  0  0  0  0
   14.9231    3.2753    1.7444 H   0  0  0  0  0  0  0  0  0  0  0  0
   16.8051    3.4484    0.6964 C   0  0  0  0  0  0  0  0  0  0  0  0
   17.4281    4.2050    1.1742 H   0  0  0  0  0  0  0  0  0  0  0  0
   17.0232    2.4700    1.1362 H   0  0  0  0  0  0  0  0  0  0  0  0
   17.0195    3.3697   -0.8020 C   0  0  0  0  0  0  0  0  0  0  0  0
   17.9797    2.9206   -1.0609 H   0  0  0  0  0  0  0  0  0  0  0  0
   16.9514    4.3612   -1.2582 H   0  0  0  0  0  0  0  0  0  0  0  0
   14.7589   -0.7137   -1.8099 C   0  0  0  0  0  0  0  0  0  0  0  0
   14.1026   -0.3976   -1.0017 H   0  0  0  0  0  0  0  0  0  0  0  0
   13.3780   -2.9040   -0.4125 C   0  0  0  0  0  0  0  0  0  0  0  0
   12.4569   -3.1740   -1.1818 O   0  0  0  0  0  0  0  0  0  0  0  0
   13.1670   -2.4512    0.8714 N   0  0  0  0  0  0  0  0  0  0  0  0
   11.8770   -2.2116    1.5196 C   0  0  0  0  0  0  0  0  0  0  0  0
   11.8925   -2.5610    2.5576 H   0  0  0  0  0  0  0  0  0  0  0  0
   11.0754   -2.7463    0.9989 H   0  0  0  0  0  0  0  0  0  0  0  0
   11.6352   -1.1431    1.5190 H   0  0  0  0  0  0  0  0  0  0  0  0
   14.4040   -2.3180    1.4544 C   0  0  0  0  0  0  0  0  0  0  0  0
   14.5859   -1.9780    2.7581 N   0  0  0  0  0  0  0  0  0  0  0  0
   13.7769   -2.0077    3.3733 H   0  0  0  0  0  0  0  0  0  0  0  0
   15.5084   -2.1370    3.1540 H   0  0  0  0  0  0  0  0  0  0  0  0
   15.3798   -2.5881    0.6477 N   0  0  0  0  0  4  0  0  0  0  0  0
   16.3493   -2.6943    0.9530 H   0  0  0  0  0  0  0  0  0  0  0  0
   14.4304   -5.2697   -1.7471 C   0  0  0  0  0  0  0  0  0  0  0  0
   13.4929   -4.8700   -2.1219 H   0  0  0  0  0  0  0  0  0  0  0  0
   14.7561   -6.6048   -2.0105 C   0  0  0  0  0  0  0  0  0  0  0  0
   14.0727   -7.2254   -2.5814 H   0  0  0  0  0  0  0  0  0  0  0  0
  1  2  1  0
  2  3  2  0
  3  4  1  0
  3  5  1  0
  5  6  1  0
  5  7  2  0
  7  8  1  0
  8  9  1  0
  9 10  2  0
 10 11  1  0
 10 12  1  0
 12 13  1  0
 12 14  2  0
 14 15  1  0
 14 16  1  0
 16 17  1  0
 17 18  1  0
 17 19  1  0
 17 20  1  0
 20 21  1  0
 20 22  1  0
 22 23  1  0
 22 24  1  0
 24 25  1  0
 24 26  1  0
 24 27  1  0
 27 28  1  0
 27 29  1  0
 27 30  1  0
 30 31  1  0
 30 32  1  0
 30 33  1  0
 33 34  1  0
 33 35  1  0
 16 36  2  0
 36 37  1  0
  8 38  1  0
 38 39  2  0
 38 40  1  0
 40 41  1  0
 41 42  1  0
 41 43  1  0
 41 44  1  0
 40 45  1  0
 45 46  1  0
 46 47  1  0
 46 48  1  0
 45 49  2  0
 49 50  1  0
  7 51  1  0
 51 52  1  0
 51 53  2  0
 53 54  1  0
 53  2  1  0
 49  8  1  0
 36  9  1  0
 33 22  1  0
M  CHG  1  49   1
M  END
>  <score>  (117) 
5.85097

$$$$

     RDKit          3D

 50 53  0  0  0  0  0  0  0  0999 V2000
    9.8637   -4.7925    1.0850 H   0  0  0  0  0  0  0  0  0  0  0  0
   10.4444   -5.5774    0.6084 C   0  0  0  0  0  0  0  0  0  0  0  0
    9.9689   -6.1997   -0.5519 C   0  0  0  0  0  0  0  0  0  0  0  0
    9.0177   -5.8957   -0.9798 H   0  0  0  0  0  0  0  0  0  0  0  0
   10.7183   -7.2160   -1.1577 C   0  0  0  0  0  0  0  0  0  0  0  0
   10.3446   -7.6977   -2.0554 H   0  0  0  0  0  0  0  0  0  0  0  0
   11.9462   -7.6160   -0.6117 C   0  0  0  0  0  0  0  0  0  0  0  0
   12.7455   -8.7162   -1.2550 C   0  0  0  0  0  0  0  0  0  0  0  0
   13.4251   -9.1602   -0.5228 H   0  0  0  0  0  0  0  0  0  0  0  0
   12.0670   -9.5036   -1.5954 H   0  0  0  0  0  0  0  0  0  0  0  0
   13.7145   -8.0845   -2.6838 S   0  0  0  0  0  0  0  0  0  0  0  0
   14.7820   -6.9501   -1.8642 C   0  0  0  0  0  0  0  0  0  0  0  0
   16.0157   -7.4027   -1.3974 C   0  0  0  0  0  0  0  0  0  0  0  0
   16.2958   -8.4367   -1.5558 H   0  0  0  0  0  0  0  0  0  0  0  0
   16.8896   -6.5285   -0.7483 C   0  0  0  0  0  0  0  0  0  0  0  0
   17.8506   -6.8834   -0.3898 H   0  0  0  0  0  0  0  0  0  0  0  0
   16.5242   -5.1937   -0.5666 C   0  0  0  0  0  0  0  0  0  0  0  0
   17.2016   -4.5201   -0.0483 H   0  0  0  0  0  0  0  0  0  0  0  0
   15.2813   -4.7176   -1.0162 C   0  0  0  0  0  0  0  0  0  0  0  0
   14.8723   -3.2748   -0.7546 C   0  0  0  0  0  0  0  0  0  0  0  0
   15.3614   -2.2774   -1.7927 C   0  0  0  0  0  0  0  0  0  0  0  0
   15.9082   -2.6833   -3.0200 C   0  0  0  0  0  0  0  0  0  0  0  0
   15.9719   -3.7417   -3.2520 H   0  0  0  0  0  0  0  0  0  0  0  0
   16.3938   -1.7336   -3.9265 C   0  0  0  0  0  0  0  0  0  0  0  0
   16.8517   -2.0558   -4.8550 H   0  0  0  0  0  0  0  0  0  0  0  0
   16.3354   -0.3679   -3.6200 C   0  0  0  0  0  0  0  0  0  0  0  0
   16.7448    0.3694   -4.3038 H   0  0  0  0  0  0  0  0  0  0  0  0
   15.7735    0.0449   -2.4084 C   0  0  0  0  0  0  0  0  0  0  0  0
   15.7437    1.0967   -2.1334 H   0  0  0  0  0  0  0  0  0  0  0  0
   15.2777   -0.9046   -1.5138 C   0  0  0  0  0  0  0  0  0  0  0  0
   14.8504   -0.5792   -0.5670 H   0  0  0  0  0  0  0  0  0  0  0  0
   13.3570   -3.1285   -0.5193 C   0  0  0  0  0  0  0  0  0  0  0  0
   12.4352   -3.3427   -1.3149 O   0  0  0  0  0  0  0  0  0  0  0  0
   13.1613   -2.7088    0.7821 N   0  0  0  0  0  0  0  0  0  0  0  0
   11.9047   -2.3034    1.3923 C   0  0  0  0  0  0  0  0  0  0  0  0
   11.0618   -2.5498    0.7335 H   0  0  0  0  0  0  0  0  0  0  0  0
   11.8939   -1.2224    1.5811 H   0  0  0  0  0  0  0  0  0  0  0  0
   11.7745   -2.8193    2.3509 H   0  0  0  0  0  0  0  0  0  0  0  0
   14.3891   -2.5775    1.3853 C   0  0  0  0  0  0  0  0  0  0  0  0
   14.5552   -2.2023    2.6884 N   0  0  0  0  0  0  0  0  0  0  0  0
   13.7599   -2.3183    3.3170 H   0  0  0  0  0  0  0  0  0  0  0  0
   15.4961   -2.1970    3.0727 H   0  0  0  0  0  0  0  0  0  0  0  0
   15.3593   -2.8637    0.5864 N   0  0  0  0  0  4  0  0  0  0  0  0
   16.3440   -2.7910    0.8491 H   0  0  0  0  0  0  0  0  0  0  0  0
   14.4163   -5.6119   -1.6762 C   0  0  0  0  0  0  0  0  0  0  0  0
   13.4525   -5.2759   -2.0448 H   0  0  0  0  0  0  0  0  0  0  0  0
   12.4150   -6.9868    0.5492 C   0  0  0  0  0  0  0  0  0  0  0  0
   13.3624   -7.2899    0.9840 H   0  0  0  0  0  0  0  0  0  0  0  0
   11.6687   -5.9718    1.1593 C   0  0  0  0  0  0  0  0  0  0  0  0
   12.0409   -5.4940    2.0621 H   0  0  0  0  0  0  0  0  0  0  0  0
  1  2  1  0
  2  3  2  0
  3  4  1  0
  3  5  1  0
  5  6  1  0
  5  7  2  0
  7  8  1  0
  8  9  1  0
  8 10  1  0
  8 11  1  0
 11 12  1  0
 12 13  2  0
 13 14  1  0
 13 15  1  0
 15 16  1  0
 15 17  2  0
 17 18  1  0
 17 19  1  0
 19 20  1  0
 20 21  1  0
 21 22  2  0
 22 23  1  0
 22 24  1  0
 24 25  1  0
 24 26  2  0
 26 27  1  0
 26 28  1  0
 28 29  1  0
 28 30  2  0
 30 31  1  0
 20 32  1  0
 32 33  2  0
 32 34  1  0
 34 35  1  0
 35 36  1  0
 35 37  1  0
 35 38  1  0
 34 39  1  0
 39 40  1  0
 40 41  1  0
 40 42  1  0
 39 43  2  0
 43 44  1  0
 19 45  2  0
 45 46  1  0
  7 47  1  0
 47 48  1  0
 47 49  2  0
 49 50  1  0
 49  2  1  0
 45 12  1  0
 43 20  1  0
 30 21  1  0
M  CHG  1  43   1
M  END
>  <score>  (118) 
5.84996

$$$$

     RDKit          3D

 51 55  0  0  0  0  0  0  0  0999 V2000
   14.3809   -7.5934   -3.6615 H   0  0  0  0  0  0  0  0  0  0  0  0
   13.9268   -8.3804   -3.0653 C   0  0  0  0  0  0  0  0  0  0  0  0
   13.2163   -9.3353   -3.6826 N   0  0  0  0  0  0  0  0  0  0  0  0
   12.6194  -10.2777   -2.9386 C   0  0  0  0  0  0  0  0  0  0  0  0
   12.0172  -11.0298   -3.4359 H   0  0  0  0  0  0  0  0  0  0  0  0
   12.7201  -10.3136   -1.5490 C   0  0  0  0  0  0  0  0  0  0  0  0
   12.0058  -11.2598   -0.7962 C   0  0  0  0  0  0  0  0  0  0  0  0
   11.3329  -11.9716   -1.2691 H   0  0  0  0  0  0  0  0  0  0  0  0
   12.1388  -11.2595    0.5922 C   0  0  0  0  0  0  0  0  0  0  0  0
   11.5543  -11.9522    1.1847 H   0  0  0  0  0  0  0  0  0  0  0  0
   13.0178  -10.3748    1.2259 C   0  0  0  0  0  0  0  0  0  0  0  0
   13.1449  -10.4001    2.3043 H   0  0  0  0  0  0  0  0  0  0  0  0
   13.7084   -9.4222    0.4738 C   0  0  0  0  0  0  0  0  0  0  0  0
   14.3650   -8.7168    0.9688 H   0  0  0  0  0  0  0  0  0  0  0  0
   13.5405   -9.3623   -0.9100 C   0  0  0  0  0  0  0  0  0  0  0  0
   14.1477   -8.3678   -1.6916 C   0  0  0  0  0  0  0  0  0  0  0  0
   15.0078   -7.3076   -1.1656 C   0  0  0  0  0  0  0  0  0  0  0  0
   16.3429   -7.5889   -0.8535 C   0  0  0  0  0  0  0  0  0  0  0  0
   16.7122   -8.6073   -0.9347 H   0  0  0  0  0  0  0  0  0  0  0  0
   17.2134   -6.5510   -0.5058 C   0  0  0  0  0  0  0  0  0  0  0  0
   18.2584   -6.7547   -0.2872 H   0  0  0  0  0  0  0  0  0  0  0  0
   16.7365   -5.2393   -0.4328 C   0  0  0  0  0  0  0  0  0  0  0  0
   17.4032   -4.4404   -0.1240 H   0  0  0  0  0  0  0  0  0  0  0  0
   15.4020   -4.9281   -0.7213 C   0  0  0  0  0  0  0  0  0  0  0  0
   14.9291   -3.4864   -0.5343 C   0  0  0  0  0  0  0  0  0  0  0  0
   15.4316   -2.4990   -1.5871 C   0  0  0  0  0  0  0  0  0  0  0  0
   15.9379   -2.9163   -2.8307 C   0  0  0  0  0  0  0  0  0  0  0  0
   15.9912   -3.9756   -3.0654 H   0  0  0  0  0  0  0  0  0  0  0  0
   16.3686   -1.9740   -3.7752 C   0  0  0  0  0  0  0  0  0  0  0  0
   16.7548   -2.2980   -4.7334 H   0  0  0  0  0  0  0  0  0  0  0  0
   16.3008   -0.6072   -3.4957 C   0  0  0  0  0  0  0  0  0  0  0  0
   16.6498    0.1181   -4.2256 H   0  0  0  0  0  0  0  0  0  0  0  0
   15.7779   -0.1790   -2.2751 C   0  0  0  0  0  0  0  0  0  0  0  0
   15.7071    0.8811   -2.0553 H   0  0  0  0  0  0  0  0  0  0  0  0
   15.3410   -1.1162   -1.3345 C   0  0  0  0  0  0  0  0  0  0  0  0
   14.9248   -0.7672   -0.3928 H   0  0  0  0  0  0  0  0  0  0  0  0
   13.4064   -3.3410   -0.3664 C   0  0  0  0  0  0  0  0  0  0  0  0
   12.5476   -3.6300   -1.1973 O   0  0  0  0  0  0  0  0  0  0  0  0
   13.1333   -2.7737    0.8662 N   0  0  0  0  0  0  0  0  0  0  0  0
   11.8346   -2.3264    1.3671 C   0  0  0  0  0  0  0  0  0  0  0  0
   11.0426   -2.4973    0.6298 H   0  0  0  0  0  0  0  0  0  0  0  0
   11.8566   -1.2549    1.5957 H   0  0  0  0  0  0  0  0  0  0  0  0
   11.5725   -2.8684    2.2815 H   0  0  0  0  0  0  0  0  0  0  0  0
   14.3333   -2.6165    1.5200 C   0  0  0  0  0  0  0  0  0  0  0  0
   14.5074   -2.0768    2.7616 N   0  0  0  0  0  0  0  0  0  0  0  0
   15.4254   -2.1782    3.1909 H   0  0  0  0  0  0  0  0  0  0  0  0
   13.6903   -1.9615    3.3595 H   0  0  0  0  0  0  0  0  0  0  0  0
   15.3306   -3.0328    0.8157 N   0  0  0  0  0  4  0  0  0  0  0  0
   16.3012   -2.9679    1.1231 H   0  0  0  0  0  0  0  0  0  0  0  0
   14.5492   -5.9776   -1.1268 C   0  0  0  0  0  0  0  0  0  0  0  0
   13.5307   -5.7683   -1.4395 H   0  0  0  0  0  0  0  0  0  0  0  0
  1  2  1  0
  2  3  2  0
  3  4  1  0
  4  5  1  0
  4  6  2  0
  6  7  1  0
  7  8  1  0
  7  9  2  0
  9 10  1  0
  9 11  1  0
 11 12  1  0
 11 13  2  0
 13 14  1  0
 13 15  1  0
 15 16  2  0
 16 17  1  0
 17 18  2  0
 18 19  1  0
 18 20  1  0
 20 21  1  0
 20 22  2  0
 22 23  1  0
 22 24  1  0
 24 25  1  0
 25 26  1  0
 26 27  2  0
 27 28  1  0
 27 29  1  0
 29 30  1  0
 29 31  2  0
 31 32  1  0
 31 33  1  0
 33 34  1  0
 33 35  2  0
 35 36  1  0
 25 37  1  0
 37 38  2  0
 37 39  1  0
 39 40  1  0
 40 41  1  0
 40 42  1  0
 40 43  1  0
 39 44  1  0
 44 45  1  0
 45 46  1  0
 45 47  1  0
 44 48  2  0
 48 49  1  0
 24 50  2  0
 50 51  1  0
 16  2  1  0
 50 17  1  0
 15  6  1  0
 48 25  1  0
 35 26  1  0
M  CHG  1  48   1
M  END
>  <score>  (119) 
5.84588

$$$$

     RDKit          3D

 56 59  0  0  0  0  0  0  0  0999 V2000
   16.1017   -8.4607   -1.6178 H   0  0  0  0  0  0  0  0  0  0  0  0
   15.8577   -7.4111   -1.4840 C   0  0  0  0  0  0  0  0  0  0  0  0
   16.7402   -6.5671   -0.8034 C   0  0  0  0  0  0  0  0  0  0  0  0
   17.6743   -6.9583   -0.4114 H   0  0  0  0  0  0  0  0  0  0  0  0
   16.4089   -5.2215   -0.6075 C   0  0  0  0  0  0  0  0  0  0  0  0
   17.0816   -4.5708   -0.0561 H   0  0  0  0  0  0  0  0  0  0  0  0
   15.1926   -4.6965   -1.0694 C   0  0  0  0  0  0  0  0  0  0  0  0
   14.8302   -3.2408   -0.7643 C   0  0  0  0  0  0  0  0  0  0  0  0
   15.3884   -2.2292   -1.7674 C   0  0  0  0  0  0  0  0  0  0  0  0
   15.9353   -2.6304   -3.0008 C   0  0  0  0  0  0  0  0  0  0  0  0
   15.9885   -3.6893   -3.2336 H   0  0  0  0  0  0  0  0  0  0  0  0
   16.4120   -1.6821   -3.9206 C   0  0  0  0  0  0  0  0  0  0  0  0
   16.8437   -2.0035   -4.8653 H   0  0  0  0  0  0  0  0  0  0  0  0
   16.3340   -0.3179   -3.6146 C   0  0  0  0  0  0  0  0  0  0  0  0
   16.6987    0.4466   -4.2899 H   0  0  0  0  0  0  0  0  0  0  0  0
   15.7882    0.1074   -2.4062 C   0  0  0  0  0  0  0  0  0  0  0  0
   15.7181    1.4731   -2.1096 N   0  0  0  0  0  0  0  0  0  0  0  0
   15.9796    2.5377   -3.0874 C   0  0  0  0  0  0  0  0  0  0  0  0
   17.0447    2.5734   -3.3341 H   0  0  0  0  0  0  0  0  0  0  0  0
   15.4082    2.3969   -4.0146 H   0  0  0  0  0  0  0  0  0  0  0  0
   15.5607    3.8099   -2.3535 C   0  0  0  0  0  0  0  0  0  0  0  0
   14.5254    4.0696   -2.6052 H   0  0  0  0  0  0  0  0  0  0  0  0
   16.2072    4.6565   -2.6032 H   0  0  0  0  0  0  0  0  0  0  0  0
   15.6720    3.4724   -0.8693 C   0  0  1  0  0  0  0  0  0  0  0  0
   16.7123    3.6113   -0.5565 H   0  0  0  0  0  0  0  0  0  0  0  0
   14.7640    4.3059   -0.0615 N   0  0  0  0  0  0  0  0  0  0  0  0
   14.8255    5.7398   -0.3061 C   0  0  0  0  0  0  0  0  0  0  0  0
   13.9868    6.2030    0.1990 H   0  0  0  0  0  0  0  0  0  0  0  0
   14.7726    5.9656   -1.3726 H   0  0  0  0  0  0  0  0  0  0  0  0
   15.7427    6.1541    0.1059 H   0  0  0  0  0  0  0  0  0  0  0  0
   14.6927    3.9908    1.3658 C   0  0  0  0  0  0  0  0  0  0  0  0
   15.6619    4.1332    1.8486 H   0  0  0  0  0  0  0  0  0  0  0  0
   14.3763    2.9623    1.4885 H   0  0  0  0  0  0  0  0  0  0  0  0
   13.9616    4.6343    1.8570 H   0  0  0  0  0  0  0  0  0  0  0  0
   15.3327    1.9860   -0.7844 C   0  0  0  0  0  0  0  0  0  0  0  0
   14.2600    1.8401   -0.6163 H   0  0  0  0  0  0  0  0  0  0  0  0
   15.8876    1.5140    0.0364 H   0  0  0  0  0  0  0  0  0  0  0  0
   15.3176   -0.8467   -1.4991 C   0  0  0  0  0  0  0  0  0  0  0  0
   14.8939   -0.4767   -0.5714 H   0  0  0  0  0  0  0  0  0  0  0  0
   13.3144   -3.0297   -0.5964 C   0  0  0  0  0  0  0  0  0  0  0  0
   12.4517   -3.1281   -1.4729 O   0  0  0  0  0  0  0  0  0  0  0  0
   13.0331   -2.6772    0.7104 N   0  0  0  0  0  0  0  0  0  0  0  0
   11.7284   -2.3140    1.2700 C   0  0  0  0  0  0  0  0  0  0  0  0
   10.9250   -2.4783    0.5433 H   0  0  0  0  0  0  0  0  0  0  0  0
   11.5077   -2.9182    2.1584 H   0  0  0  0  0  0  0  0  0  0  0  0
   11.7141   -1.2556    1.5559 H   0  0  0  0  0  0  0  0  0  0  0  0
   14.2396   -2.6224    1.3707 C   0  0  0  0  0  0  0  0  0  0  0  0
   14.4121   -2.2967    2.6828 N   0  0  0  0  0  0  0  0  0  0  0  0
   13.5963   -2.1235    3.2678 H   0  0  0  0  0  0  0  0  0  0  0  0
   15.3447   -2.3335    3.0860 H   0  0  0  0  0  0  0  0  0  0  0  0
   15.2475   -2.9146    0.6187 N   0  0  0  0  0  4  0  0  0  0  0  0
   16.2161   -2.9620    0.9479 H   0  0  0  0  0  0  0  0  0  0  0  0
   14.3166   -5.5553   -1.7644 C   0  0  0  0  0  0  0  0  0  0  0  0
   13.3630   -5.1785   -2.1208 H   0  0  0  0  0  0  0  0  0  0  0  0
   14.6480   -6.9046   -1.9699 C   0  0  0  0  0  0  0  0  0  0  0  0
   13.9598   -7.5683   -2.4864 H   0  0  0  0  0  0  0  0  0  0  0  0
  1  2  1  0
  2  3  2  0
  3  4  1  0
  3  5  1  0
  5  6  1  0
  5  7  2  0
  7  8  1  0
  8  9  1  0
  9 10  2  0
 10 11  1  0
 10 12  1  0
 12 13  1  0
 12 14  2  0
 14 15  1  0
 14 16  1  0
 16 17  1  0
 17 18  1  0
 18 19  1  0
 18 20  1  0
 18 21  1  0
 21 22  1  0
 21 23  1  0
 21 24  1  0
 24 25  1  1
 24 26  1  0
 26 27  1  0
 27 28  1  0
 27 29  1  0
 27 30  1  0
 26 31  1  0
 31 32  1  0
 31 33  1  0
 31 34  1  0
 24 35  1  0
 35 36  1  0
 35 37  1  0
 16 38  2  0
 38 39  1  0
  8 40  1  0
 40 41  2  0
 40 42  1  0
 42 43  1  0
 43 44  1  0
 43 45  1  0
 43 46  1  0
 42 47  1  0
 47 48  1  0
 48 49  1  0
 48 50  1  0
 47 51  2  0
 51 52  1  0
  7 53  1  0
 53 54  1  0
 53 55  2  0
 55 56  1  0
 55  2  1  0
 51  8  1  0
 38  9  1  0
 35 17  1  0
M  CHG  1  51   1
M  END
>  <score>  (120) 
5.8393

$$$$

     RDKit          3D

 55 58  0  0  0  0  0  0  0  0999 V2000
   16.1313   -8.4348   -1.7089 H   0  0  0  0  0  0  0  0  0  0  0  0
   15.8834   -7.3978   -1.5017 C   0  0  0  0  0  0  0  0  0  0  0  0
   16.7779   -6.5852   -0.7975 C   0  0  0  0  0  0  0  0  0  0  0  0
   17.7309   -6.9922   -0.4686 H   0  0  0  0  0  0  0  0  0  0  0  0
   16.4449   -5.2515   -0.5236 C   0  0  0  0  0  0  0  0  0  0  0  0
   17.1517   -4.6295    0.0179 H   0  0  0  0  0  0  0  0  0  0  0  0
   15.2148   -4.7129   -0.9455 C   0  0  0  0  0  0  0  0  0  0  0  0
   14.8427   -3.2644   -0.6466 C   0  0  0  0  0  0  0  0  0  0  0  0
   15.4313   -2.2897   -1.6519 C   0  0  0  0  0  0  0  0  0  0  0  0
   15.9320   -2.7164   -2.8948 C   0  0  0  0  0  0  0  0  0  0  0  0
   15.9523   -3.7762   -3.1260 H   0  0  0  0  0  0  0  0  0  0  0  0
   16.3989   -1.7948   -3.8401 C   0  0  0  0  0  0  0  0  0  0  0  0
   16.8006   -2.1287   -4.7921 H   0  0  0  0  0  0  0  0  0  0  0  0
   16.3389   -0.4280   -3.5554 C   0  0  0  0  0  0  0  0  0  0  0  0
   16.6859    0.3183   -4.2594 H   0  0  0  0  0  0  0  0  0  0  0  0
   15.8174    0.0094   -2.3391 C   0  0  0  0  0  0  0  0  0  0  0  0
   15.6983    1.3563   -2.0409 N   0  0  0  0  0  0  0  0  0  0  0  0
   15.1391    1.5844   -1.2214 H   0  0  0  0  0  0  0  0  0  0  0  0
   15.8405    2.3796   -3.0826 C   0  0  0  0  0  0  0  0  0  0  0  0
   16.7938    2.2392   -3.6060 H   0  0  0  0  0  0  0  0  0  0  0  0
   15.8630    3.3686   -2.6113 H   0  0  0  0  0  0  0  0  0  0  0  0
   14.6985    2.3255   -4.0741 C   0  0  0  0  0  0  0  0  0  0  0  0
   13.3878    2.6479   -3.6892 C   0  0  0  0  0  0  0  0  0  0  0  0
   13.1667    2.8686   -2.6484 H   0  0  0  0  0  0  0  0  0  0  0  0
   12.3719    2.7406   -4.6505 C   0  0  0  0  0  0  0  0  0  0  0  0
   11.3669    3.0318   -4.3617 H   0  0  0  0  0  0  0  0  0  0  0  0
   12.6401    2.5140   -6.0039 C   0  0  0  0  0  0  0  0  0  0  0  0
   11.6165    2.6826   -6.9036 O   0  0  0  0  0  0  0  0  0  0  0  0
   11.9747    2.6192   -8.2940 C   0  0  0  0  0  0  0  0  0  0  0  0
   12.6355    3.4499   -8.5603 H   0  0  0  0  0  0  0  0  0  0  0  0
   12.4903    1.6829   -8.5204 H   0  0  0  0  0  0  0  0  0  0  0  0
   11.0778    2.6727   -8.9177 H   0  0  0  0  0  0  0  0  0  0  0  0
   13.9362    2.1309   -6.3788 C   0  0  0  0  0  0  0  0  0  0  0  0
   14.1479    1.9390   -7.4250 H   0  0  0  0  0  0  0  0  0  0  0  0
   14.9558    2.0381   -5.4264 C   0  0  0  0  0  0  0  0  0  0  0  0
   15.9605    1.7792   -5.7484 H   0  0  0  0  0  0  0  0  0  0  0  0
   15.3737   -0.9095   -1.3987 C   0  0  0  0  0  0  0  0  0  0  0  0
   14.9653   -0.5282   -0.4686 H   0  0  0  0  0  0  0  0  0  0  0  0
   13.3269   -3.0140   -0.5639 C   0  0  0  0  0  0  0  0  0  0  0  0
   12.5038   -3.2600   -1.4422 O   0  0  0  0  0  0  0  0  0  0  0  0
   12.9844   -2.4914    0.6721 N   0  0  0  0  0  0  0  0  0  0  0  0
   11.6203   -2.2571    1.1832 C   0  0  0  0  0  0  0  0  0  0  0  0
   11.4064   -2.9383    2.0174 H   0  0  0  0  0  0  0  0  0  0  0  0
   11.4913   -1.2259    1.5398 H   0  0  0  0  0  0  0  0  0  0  0  0
   10.8615   -2.4315    0.4048 H   0  0  0  0  0  0  0  0  0  0  0  0
   14.1521   -2.4960    1.4104 C   0  0  0  0  0  0  0  0  0  0  0  0
   14.3021   -2.0749    2.6950 N   0  0  0  0  0  0  0  0  0  0  0  0
   15.1771   -2.2972    3.1666 H   0  0  0  0  0  0  0  0  0  0  0  0
   13.4700   -1.8759    3.2440 H   0  0  0  0  0  0  0  0  0  0  0  0
   15.1780   -2.9159    0.7444 N   0  0  0  0  0  4  0  0  0  0  0  0
   16.1352   -2.8531    1.0922 H   0  0  0  0  0  0  0  0  0  0  0  0
   14.3431   -5.5348   -1.6810 C   0  0  0  0  0  0  0  0  0  0  0  0
   13.4034   -5.1378   -2.0532 H   0  0  0  0  0  0  0  0  0  0  0  0
   14.6716   -6.8678   -1.9530 C   0  0  0  0  0  0  0  0  0  0  0  0
   13.9899   -7.4914   -2.5244 H   0  0  0  0  0  0  0  0  0  0  0  0
  1  2  1  0
  2  3  2  0
  3  4  1  0
  3  5  1  0
  5  6  1  0
  5  7  2  0
  7  8  1  0
  8  9  1  0
  9 10  2  0
 10 11  1  0
 10 12  1  0
 12 13  1  0
 12 14  2  0
 14 15  1  0
 14 16  1  0
 16 17  1  0
 17 18  1  0
 17 19  1  0
 19 20  1  0
 19 21  1  0
 19 22  1  0
 22 23  2  0
 23 24  1  0
 23 25  1  0
 25 26  1  0
 25 27  2  0
 27 28  1  0
 28 29  1  0
 29 30  1  0
 29 31  1  0
 29 32  1  0
 27 33  1  0
 33 34  1  0
 33 35  2  0
 35 36  1  0
 16 37  2  0
 37 38  1  0
  8 39  1  0
 39 40  2  0
 39 41  1  0
 41 42  1  0
 42 43  1  0
 42 44  1  0
 42 45  1  0
 41 46  1  0
 46 47  1  0
 47 48  1  0
 47 49  1  0
 46 50  2  0
 50 51  1  0
  7 52  1  0
 52 53  1  0
 52 54  2  0
 54 55  1  0
 54  2  1  0
 50  8  1  0
 37  9  1  0
 35 22  1  0
M  CHG  1  50   1
M  END
>  <score>  (121) 
5.83804

$$$$

     RDKit          3D

 46 49  0  0  0  0  0  0  0  0999 V2000
   16.1105   -8.4477   -1.6741 H   0  0  0  0  0  0  0  0  0  0  0  0
   15.8677   -7.4029   -1.5070 C   0  0  0  0  0  0  0  0  0  0  0  0
   16.7629   -6.5740   -0.8212 C   0  0  0  0  0  0  0  0  0  0  0  0
   17.7030   -6.9774   -0.4516 H   0  0  0  0  0  0  0  0  0  0  0  0
   16.4433   -5.2285   -0.6068 C   0  0  0  0  0  0  0  0  0  0  0  0
   17.1397   -4.5977   -0.0619 H   0  0  0  0  0  0  0  0  0  0  0  0
   15.2241   -4.6938   -1.0572 C   0  0  0  0  0  0  0  0  0  0  0  0
   14.8501   -3.2466   -0.7651 C   0  0  0  0  0  0  0  0  0  0  0  0
   15.3418   -2.2528   -1.8002 C   0  0  0  0  0  0  0  0  0  0  0  0
   15.9198   -2.6582   -3.0121 C   0  0  0  0  0  0  0  0  0  0  0  0
   15.9926   -3.7180   -3.2426 H   0  0  0  0  0  0  0  0  0  0  0  0
   16.4336   -1.7053   -3.8983 C   0  0  0  0  0  0  0  0  0  0  0  0
   16.9081   -2.0264   -4.8224 H   0  0  0  0  0  0  0  0  0  0  0  0
   16.3669   -0.3426   -3.5770 C   0  0  0  0  0  0  0  0  0  0  0  0
   16.7863    0.3931   -4.2551 H   0  0  0  0  0  0  0  0  0  0  0  0
   15.7564    0.0876   -2.3886 C   0  0  0  0  0  0  0  0  0  0  0  0
   15.6883    1.5162   -2.0492 C   0  0  0  0  0  0  0  0  0  0  0  0
   14.5930    2.0445   -1.3476 C   0  0  0  0  0  0  0  0  0  0  0  0
   13.7906    1.3845   -1.0290 H   0  0  0  0  0  0  0  0  0  0  0  0
   14.5197    3.4182   -1.0844 C   0  0  0  0  0  0  0  0  0  0  0  0
   13.6596    3.8312   -0.5717 H   0  0  0  0  0  0  0  0  0  0  0  0
   15.5483    4.2742   -1.4870 C   0  0  0  0  0  0  0  0  0  0  0  0
   15.4730    5.6018   -1.2347 F   0  0  0  0  0  0  0  0  0  0  0  0
   16.6528    3.7444   -2.1579 C   0  0  0  0  0  0  0  0  0  0  0  0
   17.4555    4.4029   -2.4643 H   0  0  0  0  0  0  0  0  0  0  0  0
   16.7231    2.3761   -2.4398 C   0  0  0  0  0  0  0  0  0  0  0  0
   17.5868    1.9617   -2.9521 H   0  0  0  0  0  0  0  0  0  0  0  0
   15.2401   -0.8798   -1.5227 C   0  0  0  0  0  0  0  0  0  0  0  0
   14.7997   -0.5599   -0.5839 H   0  0  0  0  0  0  0  0  0  0  0  0
   13.3396   -3.0864   -0.5094 C   0  0  0  0  0  0  0  0  0  0  0  0
   12.4139   -3.2546   -1.3042 O   0  0  0  0  0  0  0  0  0  0  0  0
   13.1505   -2.6938    0.7961 N   0  0  0  0  0  0  0  0  0  0  0  0
   11.8843   -2.2849    1.3896 C   0  0  0  0  0  0  0  0  0  0  0  0
   11.0644   -2.8140    0.8967 H   0  0  0  0  0  0  0  0  0  0  0  0
   11.7355   -1.2064    1.2733 H   0  0  0  0  0  0  0  0  0  0  0  0
   11.8550   -2.5239    2.4577 H   0  0  0  0  0  0  0  0  0  0  0  0
   14.3928   -2.5529    1.3721 C   0  0  0  0  0  0  0  0  0  0  0  0
   14.5629   -2.1670    2.6655 N   0  0  0  0  0  0  0  0  0  0  0  0
   13.7856   -2.3147    3.3039 H   0  0  0  0  0  0  0  0  0  0  0  0
   15.5094   -2.1507    3.0356 H   0  0  0  0  0  0  0  0  0  0  0  0
   15.3544   -2.8450    0.5646 N   0  0  0  0  0  4  0  0  0  0  0  0
   16.3509   -2.8176    0.8122 H   0  0  0  0  0  0  0  0  0  0  0  0
   14.3427   -5.5363   -1.7574 C   0  0  0  0  0  0  0  0  0  0  0  0
   13.3971   -5.1477   -2.1229 H   0  0  0  0  0  0  0  0  0  0  0  0
   14.6594   -6.8813   -1.9807 C   0  0  0  0  0  0  0  0  0  0  0  0
   13.9625   -7.5243   -2.5134 H   0  0  0  0  0  0  0  0  0  0  0  0
  1  2  1  0
  2  3  2  0
  3  4  1  0
  3  5  1  0
  5  6  1  0
  5  7  2  0
  7  8  1  0
  8  9  1  0
  9 10  2  0
 10 11  1  0
 10 12  1  0
 12 13  1  0
 12 14  2  0
 14 15  1  0
 14 16  1  0
 16 17  1  0
 17 18  2  0
 18 19  1  0
 18 20  1  0
 20 21  1  0
 20 22  2  0
 22 23  1  0
 22 24  1  0
 24 25  1  0
 24 26  2  0
 26 27  1  0
 16 28  2  0
 28 29  1  0
  8 30  1  0
 30 31  2  0
 30 32  1  0
 32 33  1  0
 33 34  1  0
 33 35  1  0
 33 36  1  0
 32 37  1  0
 37 38  1  0
 38 39  1  0
 38 40  1  0
 37 41  2  0
 41 42  1  0
  7 43  1  0
 43 44  1  0
 43 45  2  0
 45 46  1  0
 45  2  1  0
 41  8  1  0
 28  9  1  0
 26 17  1  0
M  CHG  1  41   1
M  END
>  <score>  (122) 
5.83631

$$$$

     RDKit          3D

 51 55  0  0  0  0  0  0  0  0999 V2000
   11.6480  -12.0332    1.0531 H   0  0  0  0  0  0  0  0  0  0  0  0
   12.2155  -11.2668    0.5278 C   0  0  0  0  0  0  0  0  0  0  0  0
   12.2166  -11.3125   -0.8112 N   0  0  0  0  0  0  0  0  0  0  0  0
   12.8648  -10.3380   -1.4799 C   0  0  0  0  0  0  0  0  0  0  0  0
   12.7727  -10.3592   -2.8689 C   0  0  0  0  0  0  0  0  0  0  0  0
   12.2193  -11.1682   -3.3252 H   0  0  0  0  0  0  0  0  0  0  0  0
   13.3344   -9.3412   -3.6438 C   0  0  0  0  0  0  0  0  0  0  0  0
   13.2184   -9.3246   -4.7229 H   0  0  0  0  0  0  0  0  0  0  0  0
   14.0354   -8.3139   -3.0176 C   0  0  0  0  0  0  0  0  0  0  0  0
   14.4831   -7.5253   -3.6134 H   0  0  0  0  0  0  0  0  0  0  0  0
   14.1934   -8.2905   -1.6291 C   0  0  0  0  0  0  0  0  0  0  0  0
   15.0362   -7.2111   -1.1114 C   0  0  0  0  0  0  0  0  0  0  0  0
   16.3766   -7.4800   -0.8152 C   0  0  0  0  0  0  0  0  0  0  0  0
   16.7401   -8.5020   -0.8678 H   0  0  0  0  0  0  0  0  0  0  0  0
   17.2518   -6.4357   -0.5097 C   0  0  0  0  0  0  0  0  0  0  0  0
   18.3049   -6.6372   -0.3336 H   0  0  0  0  0  0  0  0  0  0  0  0
   16.7758   -5.1228   -0.4536 C   0  0  0  0  0  0  0  0  0  0  0  0
   17.4575   -4.3181   -0.1960 H   0  0  0  0  0  0  0  0  0  0  0  0
   15.4271   -4.8284   -0.7034 C   0  0  0  0  0  0  0  0  0  0  0  0
   14.9365   -3.3918   -0.5525 C   0  0  0  0  0  0  0  0  0  0  0  0
   15.4516   -2.4183   -1.6027 C   0  0  0  0  0  0  0  0  0  0  0  0
   15.9614   -2.8455   -2.8392 C   0  0  0  0  0  0  0  0  0  0  0  0
   16.0181   -3.9077   -3.0609 H   0  0  0  0  0  0  0  0  0  0  0  0
   16.3943   -1.9078   -3.7846 C   0  0  0  0  0  0  0  0  0  0  0  0
   16.7889   -2.2400   -4.7360 H   0  0  0  0  0  0  0  0  0  0  0  0
   16.3206   -0.5404   -3.5114 C   0  0  0  0  0  0  0  0  0  0  0  0
   16.6723    0.1792   -4.2440 H   0  0  0  0  0  0  0  0  0  0  0  0
   15.8009   -0.1057   -2.2924 C   0  0  0  0  0  0  0  0  0  0  0  0
   15.7359    0.9547   -2.0768 H   0  0  0  0  0  0  0  0  0  0  0  0
   15.3658   -1.0369   -1.3490 C   0  0  0  0  0  0  0  0  0  0  0  0
   14.9596   -0.6834   -0.4043 H   0  0  0  0  0  0  0  0  0  0  0  0
   13.4076   -3.2511   -0.4251 C   0  0  0  0  0  0  0  0  0  0  0  0
   12.5617   -3.5157   -1.2799 O   0  0  0  0  0  0  0  0  0  0  0  0
   13.1018   -2.7222    0.8122 N   0  0  0  0  0  0  0  0  0  0  0  0
   11.7859   -2.2929    1.2856 C   0  0  0  0  0  0  0  0  0  0  0  0
   11.7863   -1.2176    1.5018 H   0  0  0  0  0  0  0  0  0  0  0  0
   11.5192   -2.8361    2.1995 H   0  0  0  0  0  0  0  0  0  0  0  0
   11.0141   -2.4870    0.5300 H   0  0  0  0  0  0  0  0  0  0  0  0
   14.2910   -2.5355    1.4833 C   0  0  0  0  0  0  0  0  0  0  0  0
   14.4343   -2.0281    2.7367 N   0  0  0  0  0  0  0  0  0  0  0  0
   15.3562   -2.1162    3.1660 H   0  0  0  0  0  0  0  0  0  0  0  0
   13.6117   -2.0270    3.3390 H   0  0  0  0  0  0  0  0  0  0  0  0
   15.3123   -2.9221    0.7922 N   0  0  0  0  0  4  0  0  0  0  0  0
   16.2773   -2.8786    1.1238 H   0  0  0  0  0  0  0  0  0  0  0  0
   14.5683   -5.8864   -1.0611 C   0  0  0  0  0  0  0  0  0  0  0  0
   13.5363   -5.6806   -1.3300 H   0  0  0  0  0  0  0  0  0  0  0  0
   13.5853   -9.2962   -0.8403 C   0  0  0  0  0  0  0  0  0  0  0  0
   13.6361   -9.2941    0.5583 C   0  0  0  0  0  0  0  0  0  0  0  0
   14.1895   -8.5185    1.0893 H   0  0  0  0  0  0  0  0  0  0  0  0
   12.9158  -10.2827    1.2415 C   0  0  0  0  0  0  0  0  0  0  0  0
   12.8946  -10.2884    2.3253 H   0  0  0  0  0  0  0  0  0  0  0  0
  1  2  1  0
  2  3  2  0
  3  4  1  0
  4  5  2  0
  5  6  1  0
  5  7  1  0
  7  8  1  0
  7  9  2  0
  9 10  1  0
  9 11  1  0
 11 12  1  0
 12 13  2  0
 13 14  1  0
 13 15  1  0
 15 16  1  0
 15 17  2  0
 17 18  1  0
 17 19  1  0
 19 20  1  0
 20 21  1  0
 21 22  2  0
 22 23  1  0
 22 24  1  0
 24 25  1  0
 24 26  2  0
 26 27  1  0
 26 28  1  0
 28 29  1  0
 28 30  2  0
 30 31  1  0
 20 32  1  0
 32 33  2  0
 32 34  1  0
 34 35  1  0
 35 36  1  0
 35 37  1  0
 35 38  1  0
 34 39  1  0
 39 40  1  0
 40 41  1  0
 40 42  1  0
 39 43  2  0
 43 44  1  0
 19 45  2  0
 45 46  1  0
 11 47  2  0
 47 48  1  0
 48 49  1  0
 48 50  2  0
 50 51  1  0
 50  2  1  0
 47  4  1  0
 45 12  1  0
 43 20  1  0
 30 21  1  0
M  CHG  1  43   1
M  END
>  <score>  (123) 
5.83604

$$$$

     RDKit          3D

 49 52  0  0  0  0  0  0  0  0999 V2000
   16.1014   -8.4394   -1.7173 H   0  0  0  0  0  0  0  0  0  0  0  0
   15.8223   -7.4023   -1.5437 C   0  0  0  0  0  0  0  0  0  0  0  0
   16.7035   -6.5451   -0.8784 C   0  0  0  0  0  0  0  0  0  0  0  0
   17.6713   -6.9053   -0.5402 H   0  0  0  0  0  0  0  0  0  0  0  0
   16.3499   -5.2072   -0.6569 C   0  0  0  0  0  0  0  0  0  0  0  0
   17.0396   -4.5498   -0.1365 H   0  0  0  0  0  0  0  0  0  0  0  0
   15.1128   -4.6962   -1.0840 C   0  0  0  0  0  0  0  0  0  0  0  0
   14.7275   -3.2429   -0.7826 C   0  0  0  0  0  0  0  0  0  0  0  0
   15.3267   -2.2447   -1.7617 C   0  0  0  0  0  0  0  0  0  0  0  0
   15.9243   -2.6603   -2.9656 C   0  0  0  0  0  0  0  0  0  0  0  0
   15.9765   -3.7165   -3.2152 H   0  0  0  0  0  0  0  0  0  0  0  0
   16.4535   -1.7207   -3.8533 C   0  0  0  0  0  0  0  0  0  0  0  0
   16.9156   -2.0328   -4.7825 H   0  0  0  0  0  0  0  0  0  0  0  0
   16.3904   -0.3612   -3.5506 C   0  0  0  0  0  0  0  0  0  0  0  0
   16.8139    0.3676   -4.2329 H   0  0  0  0  0  0  0  0  0  0  0  0
   15.7771    0.0793   -2.3731 C   0  0  0  0  0  0  0  0  0  0  0  0
   15.7038    1.5161   -2.0706 C   0  0  0  0  0  0  0  0  0  0  0  0
   16.8757    2.2908   -2.1165 C   0  0  0  0  0  0  0  0  0  0  0  0
   17.8207    1.8257   -2.3762 H   0  0  0  0  0  0  0  0  0  0  0  0
   16.8529    3.6583   -1.8169 C   0  0  0  0  0  0  0  0  0  0  0  0
   17.7721    4.2404   -1.8423 H   0  0  0  0  0  0  0  0  0  0  0  0
   15.6432    4.2743   -1.4785 C   0  0  0  0  0  0  0  0  0  0  0  0
   15.6173    5.3355   -1.2411 H   0  0  0  0  0  0  0  0  0  0  0  0
   14.4626    3.5195   -1.4421 C   0  0  0  0  0  0  0  0  0  0  0  0
   13.5214    4.0063   -1.1912 H   0  0  0  0  0  0  0  0  0  0  0  0
   14.4833    2.1448   -1.7377 C   0  0  0  0  0  0  0  0  0  0  0  0
   13.1881    1.3769   -1.7419 C   0  0  0  0  0  0  0  0  0  0  0  0
   13.2022    0.6205   -2.5320 H   0  0  0  0  0  0  0  0  0  0  0  0
   12.3434    2.0496   -1.9239 H   0  0  0  0  0  0  0  0  0  0  0  0
   13.0416    0.8783   -0.7808 H   0  0  0  0  0  0  0  0  0  0  0  0
   15.2401   -0.8659   -1.4899 C   0  0  0  0  0  0  0  0  0  0  0  0
   14.7624   -0.5208   -0.5744 H   0  0  0  0  0  0  0  0  0  0  0  0
   13.2108   -2.9857   -0.6916 C   0  0  0  0  0  0  0  0  0  0  0  0
   12.3705   -3.2741   -1.5392 O   0  0  0  0  0  0  0  0  0  0  0  0
   12.8914   -2.4438    0.5398 N   0  0  0  0  0  0  0  0  0  0  0  0
   11.5415   -2.2020    1.0631 C   0  0  0  0  0  0  0  0  0  0  0  0
   11.4117   -1.1801    1.4369 H   0  0  0  0  0  0  0  0  0  0  0  0
   10.7844   -2.3601    0.2869 H   0  0  0  0  0  0  0  0  0  0  0  0
   11.3409   -2.8899    1.8881 H   0  0  0  0  0  0  0  0  0  0  0  0
   14.0558   -2.4711    1.2747 C   0  0  0  0  0  0  0  0  0  0  0  0
   14.1744   -2.1248    2.5830 N   0  0  0  0  0  0  0  0  0  0  0  0
   14.9883   -2.4804    3.0794 H   0  0  0  0  0  0  0  0  0  0  0  0
   13.3199   -1.9362    3.1038 H   0  0  0  0  0  0  0  0  0  0  0  0
   15.0722   -2.9170    0.6161 N   0  0  0  0  0  4  0  0  0  0  0  0
   16.0279   -2.9151    0.9846 H   0  0  0  0  0  0  0  0  0  0  0  0
   14.2475   -5.5655   -1.7760 C   0  0  0  0  0  0  0  0  0  0  0  0
   13.2913   -5.2100   -2.1427 H   0  0  0  0  0  0  0  0  0  0  0  0
   14.5969   -6.9066   -2.0015 C   0  0  0  0  0  0  0  0  0  0  0  0
   13.9266   -7.5643   -2.5481 H   0  0  0  0  0  0  0  0  0  0  0  0
  1  2  1  0
  2  3  2  0
  3  4  1  0
  3  5  1  0
  5  6  1  0
  5  7  2  0
  7  8  1  0
  8  9  1  0
  9 10  2  0
 10 11  1  0
 10 12  1  0
 12 13  1  0
 12 14  2  0
 14 15  1  0
 14 16  1  0
 16 17  1  0
 17 18  2  0
 18 19  1  0
 18 20  1  0
 20 21  1  0
 20 22  2  0
 22 23  1  0
 22 24  1  0
 24 25  1  0
 24 26  2  0
 26 27  1  0
 27 28  1  0
 27 29  1  0
 27 30  1  0
 16 31  2  0
 31 32  1  0
  8 33  1  0
 33 34  2  0
 33 35  1  0
 35 36  1  0
 36 37  1  0
 36 38  1  0
 36 39  1  0
 35 40  1  0
 40 41  1  0
 41 42  1  0
 41 43  1  0
 40 44  2  0
 44 45  1  0
  7 46  1  0
 46 47  1  0
 46 48  2  0
 48 49  1  0
 48  2  1  0
 44  8  1  0
 31  9  1  0
 26 17  1  0
M  CHG  1  44   1
M  END
>  <score>  (124) 
5.8358

$$$$

     RDKit          3D

 52 55  0  0  0  0  0  0  0  0999 V2000
   16.0630   -8.3093   -1.6425 H   0  0  0  0  0  0  0  0  0  0  0  0
   15.8491   -7.2549   -1.4887 C   0  0  0  0  0  0  0  0  0  0  0  0
   16.7642   -6.4433   -0.8080 C   0  0  0  0  0  0  0  0  0  0  0  0
   17.6963   -6.8611   -0.4368 H   0  0  0  0  0  0  0  0  0  0  0  0
   16.4769   -5.0890   -0.5965 C   0  0  0  0  0  0  0  0  0  0  0  0
   17.1917   -4.4685   -0.0639 H   0  0  0  0  0  0  0  0  0  0  0  0
   15.2682   -4.5329   -1.0464 C   0  0  0  0  0  0  0  0  0  0  0  0
   14.9037   -3.0848   -0.7473 C   0  0  0  0  0  0  0  0  0  0  0  0
   15.3891   -2.0961   -1.8035 C   0  0  0  0  0  0  0  0  0  0  0  0
   15.9332   -2.5088   -3.0326 C   0  0  0  0  0  0  0  0  0  0  0  0
   16.0658   -3.5693   -3.2226 H   0  0  0  0  0  0  0  0  0  0  0  0
   16.3083   -1.5764   -4.0123 C   0  0  0  0  0  0  0  0  0  0  0  0
   16.7474   -1.9157   -4.9482 H   0  0  0  0  0  0  0  0  0  0  0  0
   16.1426   -0.2025   -3.7717 C   0  0  0  0  0  0  0  0  0  0  0  0
   16.4539    0.5373   -4.5013 H   0  0  0  0  0  0  0  0  0  0  0  0
   15.6223    0.2293   -2.5475 C   0  0  0  0  0  0  0  0  0  0  0  0
   15.5639    1.5750   -2.1843 N   0  0  0  0  0  0  0  0  0  0  0  0
   15.7802    1.7644   -1.2090 H   0  0  0  0  0  0  0  0  0  0  0  0
   14.9923    2.6430   -2.8839 C   0  0  0  0  0  0  0  0  0  0  0  0
   15.3398    3.9294   -2.4659 C   0  0  0  0  0  0  0  0  0  0  0  0
   16.0597    4.0102   -1.6533 H   0  0  0  0  0  0  0  0  0  0  0  0
   14.8307    5.0645   -3.1230 C   0  0  0  0  0  0  0  0  0  0  0  0
   15.1834    6.0376   -2.8027 H   0  0  0  0  0  0  0  0  0  0  0  0
   13.9232    4.9243   -4.1967 C   0  0  0  0  0  0  0  0  0  0  0  0
   13.4332    5.9730   -4.9490 O   0  0  0  0  0  0  0  0  0  0  0  0
   14.2488    7.1536   -5.0086 C   0  0  0  0  0  0  0  0  0  0  0  0
   14.4560    7.4241   -6.0457 H   0  0  0  0  0  0  0  0  0  0  0  0
   15.2115    7.0147   -4.5105 H   0  0  0  0  0  0  0  0  0  0  0  0
   13.7259    7.9934   -4.5445 H   0  0  0  0  0  0  0  0  0  0  0  0
   13.5317    3.6332   -4.5678 C   0  0  0  0  0  0  0  0  0  0  0  0
   12.8361    3.5410   -5.3970 H   0  0  0  0  0  0  0  0  0  0  0  0
   14.0673    2.4933   -3.9288 C   0  0  0  0  0  0  0  0  0  0  0  0
   13.7833    1.4906   -4.2336 H   0  0  0  0  0  0  0  0  0  0  0  0
   15.2437   -0.7134   -1.5894 C   0  0  0  0  0  0  0  0  0  0  0  0
   14.8255   -0.3424   -0.6601 H   0  0  0  0  0  0  0  0  0  0  0  0
   13.3857   -2.9127   -0.5632 C   0  0  0  0  0  0  0  0  0  0  0  0
   12.5062   -3.1221   -1.3960 O   0  0  0  0  0  0  0  0  0  0  0  0
   13.1126   -2.5518    0.7401 N   0  0  0  0  0  0  0  0  0  0  0  0
   11.7912   -2.2812    1.3057 C   0  0  0  0  0  0  0  0  0  0  0  0
   11.7112   -1.2299    1.6040 H   0  0  0  0  0  0  0  0  0  0  0  0
   11.0030   -2.4851    0.5711 H   0  0  0  0  0  0  0  0  0  0  0  0
   11.6040   -2.9095    2.1841 H   0  0  0  0  0  0  0  0  0  0  0  0
   14.3170   -2.5127    1.4073 C   0  0  0  0  0  0  0  0  0  0  0  0
   14.4706   -2.3122    2.7497 N   0  0  0  0  0  0  0  0  0  0  0  0
   15.4106   -2.2225    3.1314 H   0  0  0  0  0  0  0  0  0  0  0  0
   13.6600   -2.0843    3.3220 H   0  0  0  0  0  0  0  0  0  0  0  0
   15.3263   -2.7322    0.6289 N   0  0  0  0  0  4  0  0  0  0  0  0
   16.2718   -2.8924    0.9831 H   0  0  0  0  0  0  0  0  0  0  0  0
   14.3703   -5.3548   -1.7479 C   0  0  0  0  0  0  0  0  0  0  0  0
   13.4365   -4.9440   -2.1178 H   0  0  0  0  0  0  0  0  0  0  0  0
   14.6529   -6.7075   -1.9638 C   0  0  0  0  0  0  0  0  0  0  0  0
   13.9382   -7.3293   -2.4956 H   0  0  0  0  0  0  0  0  0  0  0  0
  1  2  1  0
  2  3  2  0
  3  4  1  0
  3  5  1  0
  5  6  1  0
  5  7  2  0
  7  8  1  0
  8  9  1  0
  9 10  2  0
 10 11  1  0
 10 12  1  0
 12 13  1  0
 12 14  2  0
 14 15  1  0
 14 16  1  0
 16 17  1  0
 17 18  1  0
 17 19  1  0
 19 20  2  0
 20 21  1  0
 20 22  1  0
 22 23  1  0
 22 24  2  0
 24 25  1  0
 25 26  1  0
 26 27  1  0
 26 28  1  0
 26 29  1  0
 24 30  1  0
 30 31  1  0
 30 32  2  0
 32 33  1  0
 16 34  2  0
 34 35  1  0
  8 36  1  0
 36 37  2  0
 36 38  1  0
 38 39  1  0
 39 40  1  0
 39 41  1  0
 39 42  1  0
 38 43  1  0
 43 44  1  0
 44 45  1  0
 44 46  1  0
 43 47  2  0
 47 48  1  0
  7 49  1  0
 49 50  1  0
 49 51  2  0
 51 52  1  0
 51  2  1  0
 47  8  1  0
 34  9  1  0
 32 19  1  0
M  CHG  1  47   1
M  END
>  <score>  (125) 
5.83378

$$$$

     RDKit          3D

 54 56  0  0  0  0  0  0  0  0999 V2000
   16.1073   -8.3774   -1.6504 H   0  0  0  0  0  0  0  0  0  0  0  0
   15.8678   -7.3332   -1.4796 C   0  0  0  0  0  0  0  0  0  0  0  0
   16.7644   -6.5160   -0.7794 C   0  0  0  0  0  0  0  0  0  0  0  0
   17.7032   -6.9168   -0.4061 H   0  0  0  0  0  0  0  0  0  0  0  0
   16.4433   -5.1749   -0.5403 C   0  0  0  0  0  0  0  0  0  0  0  0
   17.1351   -4.5421    0.0086 H   0  0  0  0  0  0  0  0  0  0  0  0
   15.2209   -4.6441   -0.9802 C   0  0  0  0  0  0  0  0  0  0  0  0
   14.8263   -3.2080   -0.6831 C   0  0  0  0  0  0  0  0  0  0  0  0
   15.3980   -2.2183   -1.6948 C   0  0  0  0  0  0  0  0  0  0  0  0
   15.9489   -2.6392   -2.9204 C   0  0  0  0  0  0  0  0  0  0  0  0
   16.0127   -3.6988   -3.1524 H   0  0  0  0  0  0  0  0  0  0  0  0
   16.4050   -1.7061   -3.8598 C   0  0  0  0  0  0  0  0  0  0  0  0
   16.8226   -2.0423   -4.8036 H   0  0  0  0  0  0  0  0  0  0  0  0
   16.3120   -0.3378   -3.5920 C   0  0  0  0  0  0  0  0  0  0  0  0
   16.6630    0.3763   -4.3310 H   0  0  0  0  0  0  0  0  0  0  0  0
   15.7581    0.1080   -2.3866 C   0  0  0  0  0  0  0  0  0  0  0  0
   15.6255    1.5814   -2.1002 C   0  0  0  0  0  0  0  0  0  0  0  0
   15.7730    1.7503   -1.0287 H   0  0  0  0  0  0  0  0  0  0  0  0
   16.4035    2.1362   -2.6368 H   0  0  0  0  0  0  0  0  0  0  0  0
   14.2433    2.0977   -2.5185 C   0  0  0  0  0  0  0  0  0  0  0  0
   14.0978    1.9360   -3.5926 H   0  0  0  0  0  0  0  0  0  0  0  0
   13.4638    1.5438   -1.9842 H   0  0  0  0  0  0  0  0  0  0  0  0
   14.1305    3.5923   -2.2000 C   0  0  0  0  0  0  0  0  0  0  0  0
   14.9541    4.1254   -2.6868 H   0  0  0  0  0  0  0  0  0  0  0  0
   14.2245    3.7462   -1.1194 H   0  0  0  0  0  0  0  0  0  0  0  0
   12.8021    4.1786   -2.6879 C   0  0  0  0  0  0  0  0  0  0  0  0
   12.6685    3.9493   -3.7504 H   0  0  0  0  0  0  0  0  0  0  0  0
   12.8364    5.2676   -2.5815 H   0  0  0  0  0  0  0  0  0  0  0  0
   11.6155    3.6341   -1.8882 C   0  0  0  0  0  0  0  0  0  0  0  0
   11.5331    2.5525   -2.0364 H   0  0  0  0  0  0  0  0  0  0  0  0
   11.7743    3.8193   -0.8206 H   0  0  0  0  0  0  0  0  0  0  0  0
   10.3244    4.3183   -2.3360 C   0  0  0  0  0  0  0  0  0  0  0  0
    9.4740    3.9374   -1.7629 H   0  0  0  0  0  0  0  0  0  0  0  0
   10.3941    5.3995   -2.1789 H   0  0  0  0  0  0  0  0  0  0  0  0
   10.1417    4.1306   -3.3988 H   0  0  0  0  0  0  0  0  0  0  0  0
   15.3107   -0.8354   -1.4507 C   0  0  0  0  0  0  0  0  0  0  0  0
   14.8723   -0.4792   -0.5242 H   0  0  0  0  0  0  0  0  0  0  0  0
   13.2919   -3.0635   -0.5768 C   0  0  0  0  0  0  0  0  0  0  0  0
   12.4809   -3.1444   -1.4985 O   0  0  0  0  0  0  0  0  0  0  0  0
   12.9428   -2.7748    0.7278 N   0  0  0  0  0  0  0  0  0  0  0  0
   11.6221   -2.3604    1.2131 C   0  0  0  0  0  0  0  0  0  0  0  0
   10.8461   -2.4571    0.4462 H   0  0  0  0  0  0  0  0  0  0  0  0
   11.6568   -1.3149    1.5201 H   0  0  0  0  0  0  0  0  0  0  0  0
   11.3011   -2.9459    2.0779 H   0  0  0  0  0  0  0  0  0  0  0  0
   14.1268   -2.6766    1.4278 C   0  0  0  0  0  0  0  0  0  0  0  0
   14.2442   -2.4401    2.7605 N   0  0  0  0  0  0  0  0  0  0  0  0
   15.1497   -2.1097    3.1105 H   0  0  0  0  0  0  0  0  0  0  0  0
   13.3987   -2.2942    3.3084 H   0  0  0  0  0  0  0  0  0  0  0  0
   15.1826   -2.8541    0.7076 N   0  0  0  0  0  4  0  0  0  0  0  0
   16.0885   -3.0667    1.1301 H   0  0  0  0  0  0  0  0  0  0  0  0
   14.3446   -5.4699   -1.7023 C   0  0  0  0  0  0  0  0  0  0  0  0
   13.4012   -5.0680   -2.0573 H   0  0  0  0  0  0  0  0  0  0  0  0
   14.6581   -6.8080   -1.9467 C   0  0  0  0  0  0  0  0  0  0  0  0
   13.9499   -7.4321   -2.4845 H   0  0  0  0  0  0  0  0  0  0  0  0
  1  2  1  0
  2  3  2  0
  3  4  1  0
  3  5  1  0
  5  6  1  0
  5  7  2  0
  7  8  1  0
  8  9  1  0
  9 10  2  0
 10 11  1  0
 10 12  1  0
 12 13  1  0
 12 14  2  0
 14 15  1  0
 14 16  1  0
 16 17  1  0
 17 18  1  0
 17 19  1  0
 17 20  1  0
 20 21  1  0
 20 22  1  0
 20 23  1  0
 23 24  1  0
 23 25  1  0
 23 26  1  0
 26 27  1  0
 26 28  1  0
 26 29  1  0
 29 30  1  0
 29 31  1  0
 29 32  1  0
 32 33  1  0
 32 34  1  0
 32 35  1  0
 16 36  2  0
 36 37  1  0
  8 38  1  0
 38 39  2  0
 38 40  1  0
 40 41  1  0
 41 42  1  0
 41 43  1  0
 41 44  1  0
 40 45  1  0
 45 46  1  0
 46 47  1  0
 46 48  1  0
 45 49  2  0
 49 50  1  0
  7 51  1  0
 51 52  1  0
 51 53  2  0
 53 54  1  0
 53  2  1  0
 49  8  1  0
 36  9  1  0
M  CHG  1  49   1
M  END
>  <score>  (126) 
5.83325

$$$$

     RDKit          3D

 47 50  0  0  0  0  0  0  0  0999 V2000
   16.0899   -8.3945   -1.6897 H   0  0  0  0  0  0  0  0  0  0  0  0
   15.8661   -7.3466   -1.5072 C   0  0  0  0  0  0  0  0  0  0  0  0
   16.7784   -6.5438   -0.8144 C   0  0  0  0  0  0  0  0  0  0  0  0
   17.7163   -6.9600   -0.4613 H   0  0  0  0  0  0  0  0  0  0  0  0
   16.4805   -5.1987   -0.5621 C   0  0  0  0  0  0  0  0  0  0  0  0
   17.1941   -4.5816   -0.0234 H   0  0  0  0  0  0  0  0  0  0  0  0
   15.2623   -4.6455   -0.9843 C   0  0  0  0  0  0  0  0  0  0  0  0
   14.8975   -3.2012   -0.6579 C   0  0  0  0  0  0  0  0  0  0  0  0
   15.4006   -2.1892   -1.6840 C   0  0  0  0  0  0  0  0  0  0  0  0
   16.0013   -2.5970   -2.8878 C   0  0  0  0  0  0  0  0  0  0  0  0
   16.1343   -3.6573   -3.0813 H   0  0  0  0  0  0  0  0  0  0  0  0
   16.4157   -1.6629   -3.8415 C   0  0  0  0  0  0  0  0  0  0  0  0
   16.9105   -1.9973   -4.7504 H   0  0  0  0  0  0  0  0  0  0  0  0
   16.1595   -0.3017   -3.6408 C   0  0  0  0  0  0  0  0  0  0  0  0
   16.4581    0.4299   -4.3821 H   0  0  0  0  0  0  0  0  0  0  0  0
   15.5031    0.1301   -2.4853 C   0  0  0  0  0  0  0  0  0  0  0  0
   15.1469    1.4556   -2.3724 O   0  0  0  0  0  0  0  0  0  0  0  0
   15.4347    2.0704   -1.1803 C   0  0  0  0  0  0  0  0  0  0  0  0
   16.4230    1.5604   -0.3346 C   0  0  0  0  0  0  0  0  0  0  0  0
   16.8635    0.6095   -0.6191 H   0  0  0  0  0  0  0  0  0  0  0  0
   16.8356    2.2618    0.7991 C   0  0  0  0  0  0  0  0  0  0  0  0
   17.6485    1.8823    1.4141 H   0  0  0  0  0  0  0  0  0  0  0  0
   16.2103    3.4595    1.1299 C   0  0  0  0  0  0  0  0  0  0  0  0
   16.5330    4.0206    2.0023 H   0  0  0  0  0  0  0  0  0  0  0  0
   15.1593    3.9345    0.3427 C   0  0  0  0  0  0  0  0  0  0  0  0
   14.3266    5.3753    0.8113 Cl  0  0  0  0  0  0  0  0  0  0  0  0
   14.7709    3.2470   -0.8134 C   0  0  0  0  0  0  0  0  0  0  0  0
   13.9708    3.6516   -1.4269 H   0  0  0  0  0  0  0  0  0  0  0  0
   15.1755   -0.8092   -1.4952 C   0  0  0  0  0  0  0  0  0  0  0  0
   14.7057   -0.4484   -0.5836 H   0  0  0  0  0  0  0  0  0  0  0  0
   13.3778   -3.0307   -0.4910 C   0  0  0  0  0  0  0  0  0  0  0  0
   12.5133   -3.2169   -1.3465 O   0  0  0  0  0  0  0  0  0  0  0  0
   13.0963   -2.6190    0.7954 N   0  0  0  0  0  0  0  0  0  0  0  0
   11.7755   -2.2846    1.3234 C   0  0  0  0  0  0  0  0  0  0  0  0
   11.5491   -2.8883    2.2099 H   0  0  0  0  0  0  0  0  0  0  0  0
   10.9964   -2.4759    0.5750 H   0  0  0  0  0  0  0  0  0  0  0  0
   11.7293   -1.2239    1.5953 H   0  0  0  0  0  0  0  0  0  0  0  0
   14.2984   -2.5379    1.4655 C   0  0  0  0  0  0  0  0  0  0  0  0
   14.4668   -2.1866    2.7723 N   0  0  0  0  0  0  0  0  0  0  0  0
   13.6512   -2.0838    3.3723 H   0  0  0  0  0  0  0  0  0  0  0  0
   15.3973   -2.2673    3.1808 H   0  0  0  0  0  0  0  0  0  0  0  0
   15.3067   -2.8519    0.7207 N   0  0  0  0  0  4  0  0  0  0  0  0
   16.2570   -2.9688    1.0784 H   0  0  0  0  0  0  0  0  0  0  0  0
   14.3698   -5.4548   -1.7101 C   0  0  0  0  0  0  0  0  0  0  0  0
   13.4321   -5.0423   -2.0681 H   0  0  0  0  0  0  0  0  0  0  0  0
   14.6653   -6.7986   -1.9653 C   0  0  0  0  0  0  0  0  0  0  0  0
   13.9558   -7.4110   -2.5133 H   0  0  0  0  0  0  0  0  0  0  0  0
  1  2  1  0
  2  3  2  0
  3  4  1  0
  3  5  1  0
  5  6  1  0
  5  7  2  0
  7  8  1  0
  8  9  1  0
  9 10  2  0
 10 11  1  0
 10 12  1  0
 12 13  1  0
 12 14  2  0
 14 15  1  0
 14 16  1  0
 16 17  1  0
 17 18  1  0
 18 19  2  0
 19 20  1  0
 19 21  1  0
 21 22  1  0
 21 23  2  0
 23 24  1  0
 23 25  1  0
 25 26  1  0
 25 27  2  0
 27 28  1  0
 16 29  2  0
 29 30  1  0
  8 31  1  0
 31 32  2  0
 31 33  1  0
 33 34  1  0
 34 35  1  0
 34 36  1  0
 34 37  1  0
 33 38  1  0
 38 39  1  0
 39 40  1  0
 39 41  1  0
 38 42  2  0
 42 43  1  0
  7 44  1  0
 44 45  1  0
 44 46  2  0
 46 47  1  0
 46  2  1  0
 42  8  1  0
 29  9  1  0
 27 18  1  0
M  CHG  1  42   1
M  END
>  <score>  (127) 
5.83159

$$$$

     RDKit          3D

 50 53  0  0  0  0  0  0  0  0999 V2000
   12.8509  -11.4205    2.1408 H   0  0  0  0  0  0  0  0  0  0  0  0
   13.0199  -10.9890    1.1594 C   0  0  0  0  0  0  0  0  0  0  0  0
   12.0747  -10.2007    0.6171 N   0  0  0  0  0  0  0  0  0  0  0  0
   12.3180   -9.6197   -0.5677 C   0  0  0  0  0  0  0  0  0  0  0  0
   11.5661   -8.9639   -1.0000 H   0  0  0  0  0  0  0  0  0  0  0  0
   13.5071   -9.8429   -1.2620 C   0  0  0  0  0  0  0  0  0  0  0  0
   13.7582   -9.1380   -2.5456 C   0  0  0  0  0  0  0  0  0  0  0  0
   14.7913   -9.2672   -2.8159 H   0  0  0  0  0  0  0  0  0  0  0  0
   13.1298   -9.5409   -3.3464 H   0  0  0  0  0  0  0  0  0  0  0  0
   13.5557   -7.7059   -2.3732 N   0  0  0  0  0  0  0  0  0  0  0  0
   12.8353   -7.2537   -2.9247 H   0  0  0  0  0  0  0  0  0  0  0  0
   14.5562   -6.8853   -1.8757 C   0  0  0  0  0  0  0  0  0  0  0  0
   15.7793   -7.4095   -1.4592 C   0  0  0  0  0  0  0  0  0  0  0  0
   15.9534   -8.4665   -1.6155 H   0  0  0  0  0  0  0  0  0  0  0  0
   16.7170   -6.5857   -0.8314 C   0  0  0  0  0  0  0  0  0  0  0  0
   17.6536   -6.9916   -0.4610 H   0  0  0  0  0  0  0  0  0  0  0  0
   16.4077   -5.2385   -0.6289 C   0  0  0  0  0  0  0  0  0  0  0  0
   17.0938   -4.6005   -0.0809 H   0  0  0  0  0  0  0  0  0  0  0  0
   15.1927   -4.6942   -1.0711 C   0  0  0  0  0  0  0  0  0  0  0  0
   14.8367   -3.2527   -0.7611 C   0  0  0  0  0  0  0  0  0  0  0  0
   15.3911   -2.2542   -1.7673 C   0  0  0  0  0  0  0  0  0  0  0  0
   15.9365   -2.6625   -2.9977 C   0  0  0  0  0  0  0  0  0  0  0  0
   15.9907   -3.7215   -3.2356 H   0  0  0  0  0  0  0  0  0  0  0  0
   16.4137   -1.7152   -3.9151 C   0  0  0  0  0  0  0  0  0  0  0  0
   16.8385   -2.0292   -4.8636 H   0  0  0  0  0  0  0  0  0  0  0  0
   16.3489   -0.3509   -3.6115 C   0  0  0  0  0  0  0  0  0  0  0  0
   16.7249    0.3840   -4.3178 H   0  0  0  0  0  0  0  0  0  0  0  0
   15.7925    0.0692   -2.3998 C   0  0  0  0  0  0  0  0  0  0  0  0
   15.7329    1.1277   -2.1595 H   0  0  0  0  0  0  0  0  0  0  0  0
   15.3120   -0.8784   -1.4901 C   0  0  0  0  0  0  0  0  0  0  0  0
   14.8779   -0.5480   -0.5505 H   0  0  0  0  0  0  0  0  0  0  0  0
   13.3180   -3.0630   -0.5881 C   0  0  0  0  0  0  0  0  0  0  0  0
   12.4519   -3.1838   -1.4561 O   0  0  0  0  0  0  0  0  0  0  0  0
   13.0424   -2.7011    0.7154 N   0  0  0  0  0  0  0  0  0  0  0  0
   11.7404   -2.3224    1.2739 C   0  0  0  0  0  0  0  0  0  0  0  0
   10.9351   -2.4812    0.5481 H   0  0  0  0  0  0  0  0  0  0  0  0
   11.7342   -1.2645    1.5555 H   0  0  0  0  0  0  0  0  0  0  0  0
   11.5061   -2.9152    2.1643 H   0  0  0  0  0  0  0  0  0  0  0  0
   14.2486   -2.6214    1.3757 C   0  0  0  0  0  0  0  0  0  0  0  0
   14.4254   -2.2635    2.6771 N   0  0  0  0  0  0  0  0  0  0  0  0
   15.3593   -2.3176    3.0811 H   0  0  0  0  0  0  0  0  0  0  0  0
   13.6089   -2.1257    3.2726 H   0  0  0  0  0  0  0  0  0  0  0  0
   15.2529   -2.9206    0.6192 N   0  0  0  0  0  4  0  0  0  0  0  0
   16.2150   -2.9762    0.9537 H   0  0  0  0  0  0  0  0  0  0  0  0
   14.2821   -5.5333   -1.7340 C   0  0  0  0  0  0  0  0  0  0  0  0
   13.3267   -5.1685   -2.0977 H   0  0  0  0  0  0  0  0  0  0  0  0
   14.4686  -10.7048   -0.7381 C   0  0  0  0  0  0  0  0  0  0  0  0
   15.3947  -10.8956   -1.2789 H   0  0  0  0  0  0  0  0  0  0  0  0
   14.2203  -11.2720    0.5036 C   0  0  0  0  0  0  0  0  0  0  0  0
   14.9590  -11.9076    0.9744 H   0  0  0  0  0  0  0  0  0  0  0  0
  1  2  1  0
  2  3  2  0
  3  4  1  0
  4  5  1  0
  4  6  2  0
  6  7  1  0
  7  8  1  0
  7  9  1  0
  7 10  1  0
 10 11  1  0
 10 12  1  0
 12 13  2  0
 13 14  1  0
 13 15  1  0
 15 16  1  0
 15 17  2  0
 17 18  1  0
 17 19  1  0
 19 20  1  0
 20 21  1  0
 21 22  2  0
 22 23  1  0
 22 24  1  0
 24 25  1  0
 24 26  2  0
 26 27  1  0
 26 28  1  0
 28 29  1  0
 28 30  2  0
 30 31  1  0
 20 32  1  0
 32 33  2  0
 32 34  1  0
 34 35  1  0
 35 36  1  0
 35 37  1  0
 35 38  1  0
 34 39  1  0
 39 40  1  0
 40 41  1  0
 40 42  1  0
 39 43  2  0
 43 44  1  0
 19 45  2  0
 45 46  1  0
  6 47  1  0
 47 48  1  0
 47 49  2  0
 49 50  1  0
 49  2  1  0
 45 12  1  0
 43 20  1  0
 30 21  1  0
M  CHG  1  43   1
M  END
>  <score>  (128) 
5.8313

$$$$

     RDKit          3D

 44 47  0  0  0  0  0  0  0  0999 V2000
   16.1281   -8.4914   -1.6105 H   0  0  0  0  0  0  0  0  0  0  0  0
   15.8546   -7.4485   -1.4686 C   0  0  0  0  0  0  0  0  0  0  0  0
   16.7256   -6.5894   -0.7964 C   0  0  0  0  0  0  0  0  0  0  0  0
   17.6770   -6.9544   -0.4207 H   0  0  0  0  0  0  0  0  0  0  0  0
   16.3826   -5.2462   -0.6073 C   0  0  0  0  0  0  0  0  0  0  0  0
   17.0707   -4.5994   -0.0722 H   0  0  0  0  0  0  0  0  0  0  0  0
   15.1620   -4.7232   -1.0710 C   0  0  0  0  0  0  0  0  0  0  0  0
   14.8045   -3.2538   -0.7865 C   0  0  0  0  0  0  0  0  0  0  0  0
   15.3875   -2.2533   -1.7846 C   0  0  0  0  0  0  0  0  0  0  0  0
   15.9454   -2.6441   -3.0144 C   0  0  0  0  0  0  0  0  0  0  0  0
   16.0086   -3.6963   -3.2730 H   0  0  0  0  0  0  0  0  0  0  0  0
   16.4236   -1.6888   -3.9209 C   0  0  0  0  0  0  0  0  0  0  0  0
   16.8594   -2.0043   -4.8624 H   0  0  0  0  0  0  0  0  0  0  0  0
   16.3429   -0.3277   -3.6224 C   0  0  0  0  0  0  0  0  0  0  0  0
   16.7069    0.3943   -4.3534 H   0  0  0  0  0  0  0  0  0  0  0  0
   15.7902    0.0920   -2.3997 C   0  0  0  0  0  0  0  0  0  0  0  0
   15.7084    1.5296   -2.0808 C   0  0  0  0  0  0  0  0  0  0  0  0
   15.2164    2.0453   -0.9823 N   0  0  0  0  0  0  0  0  0  0  0  0
   15.3525    3.4032   -1.1681 C   0  0  0  0  0  0  0  0  0  0  0  0
   14.8978    4.4246   -0.1839 C   0  0  0  0  0  0  0  0  0  0  0  0
   15.5173    5.3194   -0.2566 H   0  0  0  0  0  0  0  0  0  0  0  0
   13.8655    4.6962   -0.3997 H   0  0  0  0  0  0  0  0  0  0  0  0
   14.9521    4.0320    0.8320 H   0  0  0  0  0  0  0  0  0  0  0  0
   15.8982    3.7387   -2.3054 N   0  0  0  0  0  0  0  0  0  0  0  0
   16.1444    2.4997   -2.9378 O   0  0  0  0  0  0  0  0  0  0  0  0
   15.3188   -0.8778   -1.4985 C   0  0  0  0  0  0  0  0  0  0  0  0
   14.8944   -0.5443   -0.5549 H   0  0  0  0  0  0  0  0  0  0  0  0
   13.2898   -3.0199   -0.6106 C   0  0  0  0  0  0  0  0  0  0  0  0
   12.4207   -3.0773   -1.4804 O   0  0  0  0  0  0  0  0  0  0  0  0
   13.0195   -2.6682    0.6984 N   0  0  0  0  0  0  0  0  0  0  0  0
   11.7184   -2.3125    1.2623 C   0  0  0  0  0  0  0  0  0  0  0  0
   10.9161   -2.4761    0.5382 H   0  0  0  0  0  0  0  0  0  0  0  0
   11.6923   -1.2601    1.5589 H   0  0  0  0  0  0  0  0  0  0  0  0
   11.5005   -2.9198    2.1447 H   0  0  0  0  0  0  0  0  0  0  0  0
   14.2224   -2.6310    1.3658 C   0  0  0  0  0  0  0  0  0  0  0  0
   14.3898   -2.3417    2.6909 N   0  0  0  0  0  0  0  0  0  0  0  0
   13.5798   -2.1259    3.2682 H   0  0  0  0  0  0  0  0  0  0  0  0
   15.3244   -2.3585    3.0980 H   0  0  0  0  0  0  0  0  0  0  0  0
   15.2173   -2.9062    0.5907 N   0  0  0  0  0  4  0  0  0  0  0  0
   16.1918   -2.8924    0.8943 H   0  0  0  0  0  0  0  0  0  0  0  0
   14.2984   -5.6004   -1.7689 C   0  0  0  0  0  0  0  0  0  0  0  0
   13.3519   -5.2520   -2.1735 H   0  0  0  0  0  0  0  0  0  0  0  0
   14.6428   -6.9516   -1.9598 C   0  0  0  0  0  0  0  0  0  0  0  0
   13.9732   -7.6246   -2.4890 H   0  0  0  0  0  0  0  0  0  0  0  0
  1  2  1  0
  2  3  2  0
  3  4  1  0
  3  5  1  0
  5  6  1  0
  5  7  2  0
  7  8  1  0
  8  9  1  0
  9 10  2  0
 10 11  1  0
 10 12  1  0
 12 13  1  0
 12 14  2  0
 14 15  1  0
 14 16  1  0
 16 17  1  0
 17 18  2  0
 18 19  1  0
 19 20  1  0
 20 21  1  0
 20 22  1  0
 20 23  1  0
 19 24  2  0
 24 25  1  0
 16 26  2  0
 26 27  1  0
  8 28  1  0
 28 29  2  0
 28 30  1  0
 30 31  1  0
 31 32  1  0
 31 33  1  0
 31 34  1  0
 30 35  1  0
 35 36  1  0
 36 37  1  0
 36 38  1  0
 35 39  2  0
 39 40  1  0
  7 41  1  0
 41 42  1  0
 41 43  2  0
 43 44  1  0
 43  2  1  0
 39  8  1  0
 26  9  1  0
 25 17  1  0
M  CHG  1  39   1
M  END
>  <score>  (129) 
5.83086

$$$$

     RDKit          3D

 51 55  0  0  0  0  0  0  0  0999 V2000
   13.7927  -10.7384    2.2749 H   0  0  0  0  0  0  0  0  0  0  0  0
   13.5044  -10.6121    1.2317 C   0  0  0  0  0  0  0  0  0  0  0  0
   14.0910   -9.6339    0.5170 N   0  0  0  0  0  0  0  0  0  0  0  0
   13.7665   -9.4795   -0.7849 C   0  0  0  0  0  0  0  0  0  0  0  0
   14.2562   -8.3812   -1.5411 C   0  0  0  0  0  0  0  0  0  0  0  0
   15.1028   -7.2820   -1.0441 C   0  0  0  0  0  0  0  0  0  0  0  0
   16.4481   -7.5115   -0.7385 C   0  0  0  0  0  0  0  0  0  0  0  0
   16.8422   -8.5209   -0.7618 H   0  0  0  0  0  0  0  0  0  0  0  0
   17.3058   -6.4415   -0.4671 C   0  0  0  0  0  0  0  0  0  0  0  0
   18.3581   -6.6208   -0.2619 H   0  0  0  0  0  0  0  0  0  0  0  0
   16.8129   -5.1350   -0.4527 C   0  0  0  0  0  0  0  0  0  0  0  0
   17.4810   -4.3118   -0.2153 H   0  0  0  0  0  0  0  0  0  0  0  0
   15.4578   -4.8686   -0.7001 C   0  0  0  0  0  0  0  0  0  0  0  0
   14.9473   -3.4304   -0.5497 C   0  0  0  0  0  0  0  0  0  0  0  0
   15.4496   -2.4439   -1.6045 C   0  0  0  0  0  0  0  0  0  0  0  0
   15.9588   -2.8660   -2.8447 C   0  0  0  0  0  0  0  0  0  0  0  0
   16.0243   -3.9274   -3.0666 H   0  0  0  0  0  0  0  0  0  0  0  0
   16.3831   -1.9269   -3.7953 C   0  0  0  0  0  0  0  0  0  0  0  0
   16.7778   -2.2544   -4.7488 H   0  0  0  0  0  0  0  0  0  0  0  0
   16.3029   -0.5589   -3.5243 C   0  0  0  0  0  0  0  0  0  0  0  0
   16.6378    0.1663   -4.2594 H   0  0  0  0  0  0  0  0  0  0  0  0
   15.7886   -0.1256   -2.3025 C   0  0  0  0  0  0  0  0  0  0  0  0
   15.7210    0.9345   -2.0816 H   0  0  0  0  0  0  0  0  0  0  0  0
   15.3604   -1.0594   -1.3555 C   0  0  0  0  0  0  0  0  0  0  0  0
   14.9576   -0.7092   -0.4082 H   0  0  0  0  0  0  0  0  0  0  0  0
   13.4183   -3.2882   -0.3907 C   0  0  0  0  0  0  0  0  0  0  0  0
   12.5586   -3.5682   -1.2262 O   0  0  0  0  0  0  0  0  0  0  0  0
   13.1331   -2.7250    0.8397 N   0  0  0  0  0  0  0  0  0  0  0  0
   11.8262   -2.3157    1.3563 C   0  0  0  0  0  0  0  0  0  0  0  0
   11.8281   -1.2476    1.6020 H   0  0  0  0  0  0  0  0  0  0  0  0
   11.5796   -2.8779    2.2637 H   0  0  0  0  0  0  0  0  0  0  0  0
   11.0354   -2.4922    0.6187 H   0  0  0  0  0  0  0  0  0  0  0  0
   14.3312   -2.5674    1.4973 C   0  0  0  0  0  0  0  0  0  0  0  0
   14.4934   -2.0681    2.7534 N   0  0  0  0  0  0  0  0  0  0  0  0
   13.6694   -2.0020    3.3476 H   0  0  0  0  0  0  0  0  0  0  0  0
   15.4076   -2.1907    3.1866 H   0  0  0  0  0  0  0  0  0  0  0  0
   15.3371   -2.9581    0.7930 N   0  0  0  0  0  4  0  0  0  0  0  0
   16.3035   -2.9384    1.1211 H   0  0  0  0  0  0  0  0  0  0  0  0
   14.6210   -5.9564   -1.0386 C   0  0  0  0  0  0  0  0  0  0  0  0
   13.5864   -5.7833   -1.3144 H   0  0  0  0  0  0  0  0  0  0  0  0
   13.9498   -8.3011   -2.9001 C   0  0  0  0  0  0  0  0  0  0  0  0
   14.2784   -7.4394   -3.4685 H   0  0  0  0  0  0  0  0  0  0  0  0
   13.2506   -9.3092   -3.5465 C   0  0  0  0  0  0  0  0  0  0  0  0
   13.1108   -9.2393   -4.6190 H   0  0  0  0  0  0  0  0  0  0  0  0
   12.6692  -10.3335   -2.8132 C   0  0  0  0  0  0  0  0  0  0  0  0
   12.0294  -11.0525   -3.3149 H   0  0  0  0  0  0  0  0  0  0  0  0
   12.8811  -10.3980   -1.4286 C   0  0  0  0  0  0  0  0  0  0  0  0
   12.1985  -11.3426   -0.6661 C   0  0  0  0  0  0  0  0  0  0  0  0
   11.4218  -11.9656   -1.1109 H   0  0  0  0  0  0  0  0  0  0  0  0
   12.5070  -11.4384    0.6889 C   0  0  0  0  0  0  0  0  0  0  0  0
   11.9766  -12.1467    1.3162 H   0  0  0  0  0  0  0  0  0  0  0  0
  1  2  1  0
  2  3  2  0
  3  4  1  0
  4  5  2  0
  5  6  1  0
  6  7  2  0
  7  8  1  0
  7  9  1  0
  9 10  1  0
  9 11  2  0
 11 12  1  0
 11 13  1  0
 13 14  1  0
 14 15  1  0
 15 16  2  0
 16 17  1  0
 16 18  1  0
 18 19  1  0
 18 20  2  0
 20 21  1  0
 20 22  1  0
 22 23  1  0
 22 24  2  0
 24 25  1  0
 14 26  1  0
 26 27  2  0
 26 28  1  0
 28 29  1  0
 29 30  1  0
 29 31  1  0
 29 32  1  0
 28 33  1  0
 33 34  1  0
 34 35  1  0
 34 36  1  0
 33 37  2  0
 37 38  1  0
 13 39  2  0
 39 40  1  0
  5 41  1  0
 41 42  1  0
 41 43  2  0
 43 44  1  0
 43 45  1  0
 45 46  1  0
 45 47  2  0
 47 48  1  0
 48 49  1  0
 48 50  2  0
 50 51  1  0
 50  2  1  0
 47  4  1  0
 39  6  1  0
 37 14  1  0
 24 15  1  0
M  CHG  1  37   1
M  END
>  <score>  (130) 
5.82928

$$$$

     RDKit          3D

 52 56  0  0  0  0  0  0  0  0999 V2000
   16.3578   -8.9837   -1.7581 H   0  0  0  0  0  0  0  0  0  0  0  0
   16.0416   -7.9832   -1.4815 C   0  0  0  0  0  0  0  0  0  0  0  0
   16.8873   -7.1741   -0.7178 C   0  0  0  0  0  0  0  0  0  0  0  0
   17.8706   -7.5331   -0.4305 H   0  0  0  0  0  0  0  0  0  0  0  0
   16.4719   -5.8949   -0.3320 C   0  0  0  0  0  0  0  0  0  0  0  0
   17.1482   -5.2555    0.2272 H   0  0  0  0  0  0  0  0  0  0  0  0
   15.2010   -5.4157   -0.6829 C   0  0  0  0  0  0  0  0  0  0  0  0
   14.7698   -3.9993   -0.3238 C   0  0  0  0  0  0  0  0  0  0  0  0
   15.1663   -3.0242   -1.4197 C   0  0  0  0  0  0  0  0  0  0  0  0
   15.6639   -3.4525   -2.6618 C   0  0  0  0  0  0  0  0  0  0  0  0
   15.8068   -4.5143   -2.8398 H   0  0  0  0  0  0  0  0  0  0  0  0
   15.9710   -2.5294   -3.6667 C   0  0  0  0  0  0  0  0  0  0  0  0
   16.3483   -2.8655   -4.6258 H   0  0  0  0  0  0  0  0  0  0  0  0
   15.8054   -1.1653   -3.4267 C   0  0  0  0  0  0  0  0  0  0  0  0
   16.0842   -0.4337   -4.1754 H   0  0  0  0  0  0  0  0  0  0  0  0
   15.3496   -0.7220   -2.1897 C   0  0  0  0  0  0  0  0  0  0  0  0
   15.3721    0.6883   -1.8734 C   0  0  0  0  0  0  0  0  0  0  0  0
   15.8130    1.0508   -0.6005 C   0  0  0  0  0  0  0  0  0  0  0  0
   16.1184    0.2884    0.1102 H   0  0  0  0  0  0  0  0  0  0  0  0
   15.9066    2.3850   -0.2503 C   0  0  0  0  0  0  0  0  0  0  0  0
   16.2285    2.6619    0.7459 H   0  0  0  0  0  0  0  0  0  0  0  0
   15.5595    3.3649   -1.1727 C   0  0  0  0  0  0  0  0  0  0  0  0
   15.6649    4.6984   -0.8083 C   0  0  0  0  0  0  0  0  0  0  0  0
   16.0475    4.9594    0.1711 H   0  0  0  0  0  0  0  0  0  0  0  0
   15.2588    5.6896   -1.6854 C   0  0  0  0  0  0  0  0  0  0  0  0
   15.3161    6.6997   -1.3160 H   0  0  0  0  0  0  0  0  0  0  0  0
   14.7903    5.3541   -2.9653 C   0  0  0  0  0  0  0  0  0  0  0  0
   14.4839    6.1117   -3.6751 H   0  0  0  0  0  0  0  0  0  0  0  0
   14.6794    4.0122   -3.3359 C   0  0  0  0  0  0  0  0  0  0  0  0
   14.2657    3.7367   -4.2997 H   0  0  0  0  0  0  0  0  0  0  0  0
   15.0826    3.0127   -2.4517 C   0  0  0  0  0  0  0  0  0  0  0  0
   15.0144    1.6673   -2.8097 C   0  0  0  0  0  0  0  0  0  0  0  0
   14.6584    1.3716   -3.7911 H   0  0  0  0  0  0  0  0  0  0  0  0
   15.0047   -1.6509   -1.2046 C   0  0  0  0  0  0  0  0  0  0  0  0
   14.6280   -1.2944   -0.2493 H   0  0  0  0  0  0  0  0  0  0  0  0
   13.2609   -3.8454   -0.0440 C   0  0  0  0  0  0  0  0  0  0  0  0
   12.3353   -4.1128   -0.8055 O   0  0  0  0  0  0  0  0  0  0  0  0
   13.0794   -3.1783    1.1519 N   0  0  0  0  0  0  0  0  0  0  0  0
   11.8968   -2.4021    1.5315 C   0  0  0  0  0  0  0  0  0  0  0  0
   11.5118   -2.7277    2.5043 H   0  0  0  0  0  0  0  0  0  0  0  0
   12.1360   -1.3340    1.5936 H   0  0  0  0  0  0  0  0  0  0  0  0
   11.0997   -2.5187    0.7895 H   0  0  0  0  0  0  0  0  0  0  0  0
   14.3305   -2.9951    1.6917 C   0  0  0  0  0  0  0  0  0  0  0  0
   14.5600   -2.2702    2.8216 N   0  0  0  0  0  0  0  0  0  0  0  0
   15.4827   -2.3430    3.2385 H   0  0  0  0  0  0  0  0  0  0  0  0
   13.7685   -2.0794    3.4326 H   0  0  0  0  0  0  0  0  0  0  0  0
   15.2747   -3.5299    0.9850 N   0  0  0  0  0  4  0  0  0  0  0  0
   16.2603   -3.3195    1.1567 H   0  0  0  0  0  0  0  0  0  0  0  0
   14.3731   -6.2272   -1.4775 C   0  0  0  0  0  0  0  0  0  0  0  0
   13.4119   -5.8512   -1.8141 H   0  0  0  0  0  0  0  0  0  0  0  0
   14.7883   -7.5044   -1.8727 C   0  0  0  0  0  0  0  0  0  0  0  0
   14.1412   -8.1198   -2.4903 H   0  0  0  0  0  0  0  0  0  0  0  0
  1  2  1  0
  2  3  2  0
  3  4  1  0
  3  5  1  0
  5  6  1  0
  5  7  2  0
  7  8  1  0
  8  9  1  0
  9 10  2  0
 10 11  1  0
 10 12  1  0
 12 13  1  0
 12 14  2  0
 14 15  1  0
 14 16  1  0
 16 17  1  0
 17 18  2  0
 18 19  1  0
 18 20  1  0
 20 21  1  0
 20 22  2  0
 22 23  1  0
 23 24  1  0
 23 25  2  0
 25 26  1  0
 25 27  1  0
 27 28  1  0
 27 29  2  0
 29 30  1  0
 29 31  1  0
 31 32  2  0
 32 33  1  0
 16 34  2  0
 34 35  1  0
  8 36  1  0
 36 37  2  0
 36 38  1  0
 38 39  1  0
 39 40  1  0
 39 41  1  0
 39 42  1  0
 38 43  1  0
 43 44  1  0
 44 45  1  0
 44 46  1  0
 43 47  2  0
 47 48  1  0
  7 49  1  0
 49 50  1  0
 49 51  2  0
 51 52  1  0
 51  2  1  0
 47  8  1  0
 34  9  1  0
 32 17  1  0
 31 22  1  0
M  CHG  1  47   1
M  END
>  <score>  (131) 
5.82754

$$$$

     RDKit          3D

 52 55  0  0  0  0  0  0  0  0999 V2000
   16.0870   -8.3757   -1.6463 H   0  0  0  0  0  0  0  0  0  0  0  0
   15.8567   -7.3258   -1.4903 C   0  0  0  0  0  0  0  0  0  0  0  0
   16.7593   -6.5034   -0.8066 C   0  0  0  0  0  0  0  0  0  0  0  0
   17.6966   -6.9073   -0.4330 H   0  0  0  0  0  0  0  0  0  0  0  0
   16.4528   -5.1546   -0.5931 C   0  0  0  0  0  0  0  0  0  0  0  0
   17.1604   -4.5256   -0.0603 H   0  0  0  0  0  0  0  0  0  0  0  0
   15.2390   -4.6111   -1.0467 C   0  0  0  0  0  0  0  0  0  0  0  0
   14.8671   -3.1630   -0.7537 C   0  0  0  0  0  0  0  0  0  0  0  0
   15.3768   -2.1631   -1.7946 C   0  0  0  0  0  0  0  0  0  0  0  0
   15.9307   -2.5741   -3.0166 C   0  0  0  0  0  0  0  0  0  0  0  0
   16.0414   -3.6343   -3.2338 H   0  0  0  0  0  0  0  0  0  0  0  0
   16.3403   -1.6229   -3.9622 C   0  0  0  0  0  0  0  0  0  0  0  0
   16.7893   -1.9482   -4.8948 H   0  0  0  0  0  0  0  0  0  0  0  0
   16.1966   -0.2488   -3.7104 C   0  0  0  0  0  0  0  0  0  0  0  0
   16.5577    0.4631   -4.4502 H   0  0  0  0  0  0  0  0  0  0  0  0
   15.6541    0.1926   -2.4890 C   0  0  0  0  0  0  0  0  0  0  0  0
   15.6162    1.6254   -2.0827 C   0  0  0  0  0  0  0  0  0  0  0  0
   16.0878    1.8923   -0.9796 O   0  0  0  0  0  0  0  0  0  0  0  0
   15.0615    2.7650   -2.8644 C   0  0  0  0  0  0  0  0  0  0  0  0
   15.4491    4.0745   -2.4960 C   0  0  0  0  0  0  0  0  0  0  0  0
   16.1343    4.2174   -1.6583 H   0  0  0  0  0  0  0  0  0  0  0  0
   14.9394    5.1913   -3.1626 C   0  0  0  0  0  0  0  0  0  0  0  0
   15.2700    6.1760   -2.8647 H   0  0  0  0  0  0  0  0  0  0  0  0
   14.0094    5.0496   -4.2019 C   0  0  0  0  0  0  0  0  0  0  0  0
   13.4913    6.0936   -4.9319 O   0  0  0  0  0  0  0  0  0  0  0  0
   14.3493    7.2346   -5.0773 C   0  0  0  0  0  0  0  0  0  0  0  0
   14.4111    7.5218   -6.1276 H   0  0  0  0  0  0  0  0  0  0  0  0
   15.3628    7.0467   -4.7099 H   0  0  0  0  0  0  0  0  0  0  0  0
   13.9325    8.0851   -4.5425 H   0  0  0  0  0  0  0  0  0  0  0  0
   13.6141    3.7645   -4.5569 C   0  0  0  0  0  0  0  0  0  0  0  0
   12.8846    3.6770   -5.3545 H   0  0  0  0  0  0  0  0  0  0  0  0
   14.1213    2.6278   -3.9065 C   0  0  0  0  0  0  0  0  0  0  0  0
   13.7520    1.6523   -4.2162 H   0  0  0  0  0  0  0  0  0  0  0  0
   15.2493   -0.7839   -1.5539 C   0  0  0  0  0  0  0  0  0  0  0  0
   14.8381   -0.4716   -0.5970 H   0  0  0  0  0  0  0  0  0  0  0  0
   13.3452   -3.0039   -0.5578 C   0  0  0  0  0  0  0  0  0  0  0  0
   12.4626   -3.1900   -1.3942 O   0  0  0  0  0  0  0  0  0  0  0  0
   13.0808   -2.6236    0.7422 N   0  0  0  0  0  0  0  0  0  0  0  0
   11.7713   -2.2969    1.3064 C   0  0  0  0  0  0  0  0  0  0  0  0
   11.7307   -1.2392    1.5928 H   0  0  0  0  0  0  0  0  0  0  0  0
   10.9747   -2.4807    0.5753 H   0  0  0  0  0  0  0  0  0  0  0  0
   11.5665   -2.9087    2.1930 H   0  0  0  0  0  0  0  0  0  0  0  0
   14.2911   -2.5561    1.3960 C   0  0  0  0  0  0  0  0  0  0  0  0
   14.4633   -2.2850    2.7231 N   0  0  0  0  0  0  0  0  0  0  0  0
   15.4075   -2.2365    3.1035 H   0  0  0  0  0  0  0  0  0  0  0  0
   13.6566   -2.0865    3.3117 H   0  0  0  0  0  0  0  0  0  0  0  0
   15.2922   -2.8090    0.6187 N   0  0  0  0  0  4  0  0  0  0  0  0
   16.2507   -2.9128    0.9568 H   0  0  0  0  0  0  0  0  0  0  0  0
   14.3511   -5.4459   -1.7486 C   0  0  0  0  0  0  0  0  0  0  0  0
   13.4128   -5.0468   -2.1216 H   0  0  0  0  0  0  0  0  0  0  0  0
   14.6535   -6.7946   -1.9668 C   0  0  0  0  0  0  0  0  0  0  0  0
   13.9480   -7.4251   -2.5014 H   0  0  0  0  0  0  0  0  0  0  0  0
  1  2  1  0
  2  3  2  0
  3  4  1  0
  3  5  1  0
  5  6  1  0
  5  7  2  0
  7  8  1  0
  8  9  1  0
  9 10  2  0
 10 11  1  0
 10 12  1  0
 12 13  1  0
 12 14  2  0
 14 15  1  0
 14 16  1  0
 16 17  1  0
 17 18  2  0
 17 19  1  0
 19 20  2  0
 20 21  1  0
 20 22  1  0
 22 23  1  0
 22 24  2  0
 24 25  1  0
 25 26  1  0
 26 27  1  0
 26 28  1  0
 26 29  1  0
 24 30  1  0
 30 31  1  0
 30 32  2  0
 32 33  1  0
 16 34  2  0
 34 35  1  0
  8 36  1  0
 36 37  2  0
 36 38  1  0
 38 39  1  0
 39 40  1  0
 39 41  1  0
 39 42  1  0
 38 43  1  0
 43 44  1  0
 44 45  1  0
 44 46  1  0
 43 47  2  0
 47 48  1  0
  7 49  1  0
 49 50  1  0
 49 51  2  0
 51 52  1  0
 51  2  1  0
 47  8  1  0
 34  9  1  0
 32 19  1  0
M  CHG  1  47   1
M  END
>  <score>  (132) 
5.82646

$$$$

     RDKit          3D

 50 53  0  0  0  0  0  0  0  0999 V2000
   16.2521   -8.5000   -1.8051 H   0  0  0  0  0  0  0  0  0  0  0  0
   15.9769   -7.4786   -1.5592 C   0  0  0  0  0  0  0  0  0  0  0  0
   16.8505   -6.6777   -0.8135 C   0  0  0  0  0  0  0  0  0  0  0  0
   17.8058   -7.0750   -0.4788 H   0  0  0  0  0  0  0  0  0  0  0  0
   16.4948   -5.3599   -0.4992 C   0  0  0  0  0  0  0  0  0  0  0  0
   17.1797   -4.7433    0.0770 H   0  0  0  0  0  0  0  0  0  0  0  0
   15.2632   -4.8314   -0.9232 C   0  0  0  0  0  0  0  0  0  0  0  0
   14.8592   -3.4016   -0.6216 C   0  0  0  0  0  0  0  0  0  0  0  0
   15.2799   -2.4396   -1.7265 C   0  0  0  0  0  0  0  0  0  0  0  0
   16.0434   -2.8462   -2.8361 C   0  0  0  0  0  0  0  0  0  0  0  0
   16.4048   -3.8681   -2.9104 H   0  0  0  0  0  0  0  0  0  0  0  0
   16.3312   -1.9437   -3.8637 C   0  0  0  0  0  0  0  0  0  0  0  0
   16.9060   -2.2527   -4.7265 H   0  0  0  0  0  0  0  0  0  0  0  0
   15.9155   -0.6182   -3.7771 C   0  0  0  0  0  0  0  0  0  0  0  0
   16.1866    0.0751   -4.5723 H   0  0  0  0  0  0  0  0  0  0  0  0
   15.2069   -0.1683   -2.6499 C   0  0  0  0  0  0  0  0  0  0  0  0
   14.8940    1.2614   -2.4866 C   0  0  0  0  0  0  0  0  0  0  0  0
   15.3941    2.0856   -3.2471 O   0  0  0  0  0  0  0  0  0  0  0  0
   14.1841    1.6863   -1.3752 N   0  0  0  0  0  0  0  0  0  0  0  0
   13.7866    0.9491   -0.8023 H   0  0  0  0  0  0  0  0  0  0  0  0
   14.5024    2.8585   -0.6924 C   0  0  0  0  0  0  0  0  0  0  0  0
   15.6391    3.5879   -1.0377 C   0  0  0  0  0  0  0  0  0  0  0  0
   16.2277    3.2977   -1.8977 H   0  0  0  0  0  0  0  0  0  0  0  0
   16.0931    4.6228   -0.2290 C   0  0  0  0  0  0  0  0  0  0  0  0
   17.0205    5.0908   -0.5203 H   0  0  0  0  0  0  0  0  0  0  0  0
   15.3849    4.9870    0.9234 C   0  0  0  0  0  0  0  0  0  0  0  0
   15.8350    5.9712    1.7374 F   0  0  0  0  0  0  0  0  0  0  0  0
   14.1923    4.3127    1.2239 C   0  0  0  0  0  0  0  0  0  0  0  0
   13.6391    4.5838    2.1151 H   0  0  0  0  0  0  0  0  0  0  0  0
   13.7588    3.2434    0.4209 C   0  0  0  0  0  0  0  0  0  0  0  0
   12.8675    2.6689    0.6536 H   0  0  0  0  0  0  0  0  0  0  0  0
   14.8693   -1.1025   -1.6505 C   0  0  0  0  0  0  0  0  0  0  0  0
   14.3045   -0.7996   -0.7714 H   0  0  0  0  0  0  0  0  0  0  0  0
   13.3442   -3.2815   -0.3365 C   0  0  0  0  0  0  0  0  0  0  0  0
   12.4204   -3.4459   -1.1329 O   0  0  0  0  0  0  0  0  0  0  0  0
   13.1475   -2.8811    0.9661 N   0  0  0  0  0  0  0  0  0  0  0  0
   11.9130   -2.3638    1.5530 C   0  0  0  0  0  0  0  0  0  0  0  0
   11.8753   -2.6122    2.6177 H   0  0  0  0  0  0  0  0  0  0  0  0
   11.0256   -2.7935    1.0760 H   0  0  0  0  0  0  0  0  0  0  0  0
   11.8692   -1.2736    1.4529 H   0  0  0  0  0  0  0  0  0  0  0  0
   14.3916   -2.6850    1.5072 C   0  0  0  0  0  0  0  0  0  0  0  0
   14.6023   -2.2164    2.7629 N   0  0  0  0  0  0  0  0  0  0  0  0
   13.8392   -2.2841    3.4300 H   0  0  0  0  0  0  0  0  0  0  0  0
   15.5567   -2.2459    3.0976 H   0  0  0  0  0  0  0  0  0  0  0  0
   15.3563   -2.9801    0.7011 N   0  0  0  0  0  4  0  0  0  0  0  0
   16.3439   -2.9032    0.9455 H   0  0  0  0  0  0  0  0  0  0  0  0
   14.4025   -5.6437   -1.6763 C   0  0  0  0  0  0  0  0  0  0  0  0
   13.4531   -5.2462   -2.0213 H   0  0  0  0  0  0  0  0  0  0  0  0
   14.7520   -6.9592   -1.9923 C   0  0  0  0  0  0  0  0  0  0  0  0
   14.0707   -7.5707   -2.5773 H   0  0  0  0  0  0  0  0  0  0  0  0
  1  2  1  0
  2  3  2  0
  3  4  1  0
  3  5  1  0
  5  6  1  0
  5  7  2  0
  7  8  1  0
  8  9  1  0
  9 10  2  0
 10 11  1  0
 10 12  1  0
 12 13  1  0
 12 14  2  0
 14 15  1  0
 14 16  1  0
 16 17  1  0
 17 18  2  0
 17 19  1  0
 19 20  1  0
 19 21  1  0
 21 22  2  0
 22 23  1  0
 22 24  1  0
 24 25  1  0
 24 26  2  0
 26 27  1  0
 26 28  1  0
 28 29  1  0
 28 30  2  0
 30 31  1  0
 16 32  2  0
 32 33  1  0
  8 34  1  0
 34 35  2  0
 34 36  1  0
 36 37  1  0
 37 38  1  0
 37 39  1  0
 37 40  1  0
 36 41  1  0
 41 42  1  0
 42 43  1  0
 42 44  1  0
 41 45  2  0
 45 46  1  0
  7 47  1  0
 47 48  1  0
 47 49  2  0
 49 50  1  0
 49  2  1  0
 45  8  1  0
 32  9  1  0
 30 21  1  0
M  CHG  1  45   1
M  END
>  <score>  (133) 
5.82334

$$$$

     RDKit          3D

 51 54  0  0  0  0  0  0  0  0999 V2000
   16.1300   -8.4122   -1.6961 H   0  0  0  0  0  0  0  0  0  0  0  0
   15.8879   -7.3691   -1.5123 C   0  0  0  0  0  0  0  0  0  0  0  0
   16.7790   -6.5573   -0.8044 C   0  0  0  0  0  0  0  0  0  0  0  0
   17.7255   -6.9578   -0.4558 H   0  0  0  0  0  0  0  0  0  0  0  0
   16.4507   -5.2238   -0.5301 C   0  0  0  0  0  0  0  0  0  0  0  0
   17.1537   -4.5980    0.0132 H   0  0  0  0  0  0  0  0  0  0  0  0
   15.2219   -4.6843   -0.9517 C   0  0  0  0  0  0  0  0  0  0  0  0
   14.8462   -3.2345   -0.6494 C   0  0  0  0  0  0  0  0  0  0  0  0
   15.4275   -2.2439   -1.6512 C   0  0  0  0  0  0  0  0  0  0  0  0
   15.9205   -2.6467   -2.9059 C   0  0  0  0  0  0  0  0  0  0  0  0
   15.9591   -3.7034   -3.1489 H   0  0  0  0  0  0  0  0  0  0  0  0
   16.3528   -1.7041   -3.8477 C   0  0  0  0  0  0  0  0  0  0  0  0
   16.7316   -2.0301   -4.8117 H   0  0  0  0  0  0  0  0  0  0  0  0
   16.2811   -0.3396   -3.5474 C   0  0  0  0  0  0  0  0  0  0  0  0
   16.5922    0.4069   -4.2694 H   0  0  0  0  0  0  0  0  0  0  0  0
   15.8031    0.0845   -2.3074 C   0  0  0  0  0  0  0  0  0  0  0  0
   15.7405    1.4478   -2.0129 N   0  0  0  0  0  0  0  0  0  0  0  0
   15.9344    1.9134   -0.6283 C   0  0  0  0  0  0  0  0  0  0  0  0
   16.4997    1.1766   -0.0485 H   0  0  0  0  0  0  0  0  0  0  0  0
   14.9650    2.0557   -0.1420 H   0  0  0  0  0  0  0  0  0  0  0  0
   16.6973    3.2387   -0.6611 C   0  0  0  0  0  0  0  0  0  0  0  0
   17.6820    3.0795   -1.1146 H   0  0  0  0  0  0  0  0  0  0  0  0
   16.8491    3.6094    0.3557 H   0  0  0  0  0  0  0  0  0  0  0  0
   15.9177    4.2708   -1.4813 C   0  0  0  0  0  0  0  0  0  0  0  0
   16.4648    5.2170   -1.5128 H   0  0  0  0  0  0  0  0  0  0  0  0
   14.9436    4.4645   -1.0183 H   0  0  0  0  0  0  0  0  0  0  0  0
   15.7275    3.7378   -2.9037 C   0  0  0  0  0  0  0  0  0  0  0  0
   15.1317    4.4531   -3.4773 H   0  0  0  0  0  0  0  0  0  0  0  0
   16.7114    3.6419   -3.3708 H   0  0  0  0  0  0  0  0  0  0  0  0
   15.0502    2.3649   -2.9367 C   0  0  0  0  0  0  0  0  0  0  0  0
   15.0726    1.9740   -3.9608 H   0  0  0  0  0  0  0  0  0  0  0  0
   14.0009    2.4627   -2.6376 H   0  0  0  0  0  0  0  0  0  0  0  0
   15.3816   -0.8656   -1.3731 C   0  0  0  0  0  0  0  0  0  0  0  0
   14.9941   -0.5041   -0.4258 H   0  0  0  0  0  0  0  0  0  0  0  0
   13.3255   -2.9999   -0.5560 C   0  0  0  0  0  0  0  0  0  0  0  0
   12.4994   -3.2313   -1.4355 O   0  0  0  0  0  0  0  0  0  0  0  0
   12.9954   -2.4825    0.6839 N   0  0  0  0  0  0  0  0  0  0  0  0
   11.6374   -2.2556    1.1903 C   0  0  0  0  0  0  0  0  0  0  0  0
   11.4063   -2.9405    2.0153 H   0  0  0  0  0  0  0  0  0  0  0  0
   11.5041   -1.2197    1.5270 H   0  0  0  0  0  0  0  0  0  0  0  0
   10.8930   -2.4309    0.4063 H   0  0  0  0  0  0  0  0  0  0  0  0
   14.1679   -2.4520    1.4060 C   0  0  0  0  0  0  0  0  0  0  0  0
   14.3099   -2.0521    2.6916 N   0  0  0  0  0  0  0  0  0  0  0  0
   15.1952   -2.2818    3.1420 H   0  0  0  0  0  0  0  0  0  0  0  0
   13.4655   -1.9245    3.2472 H   0  0  0  0  0  0  0  0  0  0  0  0
   15.1894   -2.8733    0.7378 N   0  0  0  0  0  4  0  0  0  0  0  0
   16.1463   -2.8540    1.0924 H   0  0  0  0  0  0  0  0  0  0  0  0
   14.3485   -5.5041   -1.6884 C   0  0  0  0  0  0  0  0  0  0  0  0
   13.4071   -5.1051   -2.0551 H   0  0  0  0  0  0  0  0  0  0  0  0
   14.6757   -6.8371   -1.9593 C   0  0  0  0  0  0  0  0  0  0  0  0
   13.9846   -7.4618   -2.5143 H   0  0  0  0  0  0  0  0  0  0  0  0
  1  2  1  0
  2  3  2  0
  3  4  1  0
  3  5  1  0
  5  6  1  0
  5  7  2  0
  7  8  1  0
  8  9  1  0
  9 10  2  0
 10 11  1  0
 10 12  1  0
 12 13  1  0
 12 14  2  0
 14 15  1  0
 14 16  1  0
 16 17  1  0
 17 18  1  0
 18 19  1  0
 18 20  1  0
 18 21  1  0
 21 22  1  0
 21 23  1  0
 21 24  1  0
 24 25  1  0
 24 26  1  0
 24 27  1  0
 27 28  1  0
 27 29  1  0
 27 30  1  0
 30 31  1  0
 30 32  1  0
 16 33  2  0
 33 34  1  0
  8 35  1  0
 35 36  2  0
 35 37  1  0
 37 38  1  0
 38 39  1  0
 38 40  1  0
 38 41  1  0
 37 42  1  0
 42 43  1  0
 43 44  1  0
 43 45  1  0
 42 46  2  0
 46 47  1  0
  7 48  1  0
 48 49  1  0
 48 50  2  0
 50 51  1  0
 50  2  1  0
 46  8  1  0
 33  9  1  0
 30 17  1  0
M  CHG  1  46   1
M  END
>  <score>  (134) 
5.82023

$$$$

     RDKit          3D

 53 55  0  0  0  0  0  0  0  0999 V2000
   16.1044   -8.4409   -1.6797 H   0  0  0  0  0  0  0  0  0  0  0  0
   15.8664   -7.3965   -1.5063 C   0  0  0  0  0  0  0  0  0  0  0  0
   16.7680   -6.5779   -0.8193 C   0  0  0  0  0  0  0  0  0  0  0  0
   17.7070   -6.9874   -0.4551 H   0  0  0  0  0  0  0  0  0  0  0  0
   16.4560   -5.2318   -0.5993 C   0  0  0  0  0  0  0  0  0  0  0  0
   17.1547   -4.6021   -0.0561 H   0  0  0  0  0  0  0  0  0  0  0  0
   15.2401   -4.6913   -1.0474 C   0  0  0  0  0  0  0  0  0  0  0  0
   14.8711   -3.2445   -0.7542 C   0  0  0  0  0  0  0  0  0  0  0  0
   15.3561   -2.2528   -1.7953 C   0  0  0  0  0  0  0  0  0  0  0  0
   15.9156   -2.6630   -3.0136 C   0  0  0  0  0  0  0  0  0  0  0  0
   15.9996   -3.7251   -3.2285 H   0  0  0  0  0  0  0  0  0  0  0  0
   16.3940   -1.7158   -3.9274 C   0  0  0  0  0  0  0  0  0  0  0  0
   16.8625   -2.0457   -4.8496 H   0  0  0  0  0  0  0  0  0  0  0  0
   16.3049   -0.3487   -3.6313 C   0  0  0  0  0  0  0  0  0  0  0  0
   16.7017    0.3831   -4.3282 H   0  0  0  0  0  0  0  0  0  0  0  0
   15.7347    0.0814   -2.4277 C   0  0  0  0  0  0  0  0  0  0  0  0
   15.6676    1.5513   -2.0916 C   0  0  0  0  0  0  0  0  0  0  0  0
   16.5745    2.0464   -2.4583 H   0  0  0  0  0  0  0  0  0  0  0  0
   15.6400    1.6881   -1.0045 H   0  0  0  0  0  0  0  0  0  0  0  0
   14.4309    2.1908   -2.7358 C   0  0  0  0  0  0  0  0  0  0  0  0
   14.4639    3.2738   -2.5868 H   0  0  0  0  0  0  0  0  0  0  0  0
   14.4420    1.9967   -3.8130 H   0  0  0  0  0  0  0  0  0  0  0  0
   13.1321    1.6451   -2.1345 C   0  0  0  0  0  0  0  0  0  0  0  0
   13.1365    1.7980   -1.0494 H   0  0  0  0  0  0  0  0  0  0  0  0
   13.0677    0.5671   -2.3187 H   0  0  0  0  0  0  0  0  0  0  0  0
   11.9640    2.3260   -2.7263 N   0  0  0  0  0  0  0  0  0  0  0  0
   11.6986    2.0261   -4.1450 C   0  0  0  0  0  0  0  0  0  0  0  0
   10.6904    2.3508   -4.4186 H   0  0  0  0  0  0  0  0  0  0  0  0
   12.4186    2.5406   -4.7894 H   0  0  0  0  0  0  0  0  0  0  0  0
   11.7742    0.9495   -4.3282 H   0  0  0  0  0  0  0  0  0  0  0  0
   11.7865    3.7347   -2.3291 C   0  0  0  0  0  0  0  0  0  0  0  0
   11.9303    3.8481   -1.2497 H   0  0  0  0  0  0  0  0  0  0  0  0
   10.7769    4.0738   -2.5784 H   0  0  0  0  0  0  0  0  0  0  0  0
   12.5084    4.3756   -2.8453 H   0  0  0  0  0  0  0  0  0  0  0  0
   15.2532   -0.8763   -1.5291 C   0  0  0  0  0  0  0  0  0  0  0  0
   14.8194   -0.5472   -0.5905 H   0  0  0  0  0  0  0  0  0  0  0  0
   13.3566   -3.0920   -0.5082 C   0  0  0  0  0  0  0  0  0  0  0  0
   12.4274   -3.2849   -1.2952 O   0  0  0  0  0  0  0  0  0  0  0  0
   13.1633   -2.6871    0.7909 N   0  0  0  0  0  0  0  0  0  0  0  0
   11.8979   -2.2839    1.3867 C   0  0  0  0  0  0  0  0  0  0  0  0
   11.8643   -2.5166    2.4547 H   0  0  0  0  0  0  0  0  0  0  0  0
   11.7400   -1.2082    1.2726 H   0  0  0  0  0  0  0  0  0  0  0  0
   11.0803   -2.8170    0.8983 H   0  0  0  0  0  0  0  0  0  0  0  0
   14.3975   -2.5519    1.3736 C   0  0  0  0  0  0  0  0  0  0  0  0
   14.5630   -2.1599    2.6619 N   0  0  0  0  0  0  0  0  0  0  0  0
   13.7982   -2.3665    3.3080 H   0  0  0  0  0  0  0  0  0  0  0  0
   15.5178   -2.1363    3.0225 H   0  0  0  0  0  0  0  0  0  0  0  0
   15.3726   -2.8356    0.5770 N   0  0  0  0  0  4  0  0  0  0  0  0
   16.3610   -2.8025    0.8352 H   0  0  0  0  0  0  0  0  0  0  0  0
   14.3507   -5.5249   -1.7506 C   0  0  0  0  0  0  0  0  0  0  0  0
   13.4053   -5.1317   -2.1114 H   0  0  0  0  0  0  0  0  0  0  0  0
   14.6592   -6.8710   -1.9758 C   0  0  0  0  0  0  0  0  0  0  0  0
   13.9620   -7.5084   -2.5134 H   0  0  0  0  0  0  0  0  0  0  0  0
  1  2  1  0
  2  3  2  0
  3  4  1  0
  3  5  1  0
  5  6  1  0
  5  7  2  0
  7  8  1  0
  8  9  1  0
  9 10  2  0
 10 11  1  0
 10 12  1  0
 12 13  1  0
 12 14  2  0
 14 15  1  0
 14 16  1  0
 16 17  1  0
 17 18  1  0
 17 19  1  0
 17 20  1  0
 20 21  1  0
 20 22  1  0
 20 23  1  0
 23 24  1  0
 23 25  1  0
 23 26  1  0
 26 27  1  0
 27 28  1  0
 27 29  1  0
 27 30  1  0
 26 31  1  0
 31 32  1  0
 31 33  1  0
 31 34  1  0
 16 35  2  0
 35 36  1  0
  8 37  1  0
 37 38  2  0
 37 39  1  0
 39 40  1  0
 40 41  1  0
 40 42  1  0
 40 43  1  0
 39 44  1  0
 44 45  1  0
 45 46  1  0
 45 47  1  0
 44 48  2  0
 48 49  1  0
  7 50  1  0
 50 51  1  0
 50 52  2  0
 52 53  1  0
 52  2  1  0
 48  8  1  0
 35  9  1  0
M  CHG  1  48   1
M  END
>  <score>  (135) 
5.8167

$$$$

     RDKit          3D

 50 53  0  0  0  0  0  0  0  0999 V2000
   16.1169   -8.5967   -1.7439 H   0  0  0  0  0  0  0  0  0  0  0  0
   15.8797   -7.5521   -1.5690 C   0  0  0  0  0  0  0  0  0  0  0  0
   16.7846   -6.7364   -0.8849 C   0  0  0  0  0  0  0  0  0  0  0  0
   17.7335   -7.1354   -0.5427 H   0  0  0  0  0  0  0  0  0  0  0  0
   16.4677   -5.4007   -0.6331 C   0  0  0  0  0  0  0  0  0  0  0  0
   17.1720   -4.7614   -0.1059 H   0  0  0  0  0  0  0  0  0  0  0  0
   15.2378   -4.8675   -1.0413 C   0  0  0  0  0  0  0  0  0  0  0  0
   14.8882   -3.4415   -0.6640 C   0  0  0  0  0  0  0  0  0  0  0  0
   15.3910   -2.3841   -1.6332 C   0  0  0  0  0  0  0  0  0  0  0  0
   15.9593   -2.6177   -2.9002 C   0  0  0  0  0  0  0  0  0  0  0  0
   16.1001   -3.6348   -3.2537 H   0  0  0  0  0  0  0  0  0  0  0  0
   16.3423   -1.5298   -3.7111 C   0  0  0  0  0  0  0  0  0  0  0  0
   16.8068   -1.7126   -4.6783 H   0  0  0  0  0  0  0  0  0  0  0  0
   16.1345   -0.2099   -3.2689 C   0  0  0  0  0  0  0  0  0  0  0  0
   16.4348    0.6278   -3.8921 H   0  0  0  0  0  0  0  0  0  0  0  0
   15.5314    0.0193   -2.0225 C   0  0  0  0  0  0  0  0  0  0  0  0
   15.2112    1.3715   -1.4382 C   0  0  0  0  0  0  0  0  0  0  0  0
   14.8266    1.1987   -0.4325 H   0  0  0  0  0  0  0  0  0  0  0  0
   16.4578    2.2394   -1.2692 C   0  0  0  0  0  0  0  0  0  0  0  0
   16.2736    2.9728   -0.4795 H   0  0  0  0  0  0  0  0  0  0  0  0
   17.2920    1.6149   -0.9563 H   0  0  0  0  0  0  0  0  0  0  0  0
   16.8319    2.9666   -2.5501 C   0  0  0  0  0  0  0  0  0  0  0  0
   17.6367    3.6745   -2.3383 H   0  0  0  0  0  0  0  0  0  0  0  0
   17.2099    2.2430   -3.2750 H   0  0  0  0  0  0  0  0  0  0  0  0
   15.6974    3.6633   -3.0793 O   0  0  0  0  0  0  0  0  0  0  0  0
   14.6457    2.7693   -3.4642 C   0  0  0  0  0  0  0  0  0  0  0  0
   15.0191    2.0354   -4.1852 H   0  0  0  0  0  0  0  0  0  0  0  0
   13.8458    3.3357   -3.9488 H   0  0  0  0  0  0  0  0  0  0  0  0
   14.0966    2.0603   -2.2306 C   0  0  0  0  0  0  0  0  0  0  0  0
   13.6156    2.7999   -1.5856 H   0  0  0  0  0  0  0  0  0  0  0  0
   13.3349    1.3271   -2.5189 H   0  0  0  0  0  0  0  0  0  0  0  0
   15.1766   -1.0676   -1.2389 C   0  0  0  0  0  0  0  0  0  0  0  0
   14.7116   -0.8727   -0.2772 H   0  0  0  0  0  0  0  0  0  0  0  0
   13.3823   -3.2114   -0.4274 C   0  0  0  0  0  0  0  0  0  0  0  0
   12.4910   -3.3276   -1.2594 O   0  0  0  0  0  0  0  0  0  0  0  0
   13.1676   -2.7471    0.8599 N   0  0  0  0  0  0  0  0  0  0  0  0
   11.9055   -2.3177    1.4659 C   0  0  0  0  0  0  0  0  0  0  0  0
   11.0437   -2.8187    1.0160 H   0  0  0  0  0  0  0  0  0  0  0  0
   11.9029   -2.5588    2.5355 H   0  0  0  0  0  0  0  0  0  0  0  0
   11.7696   -1.2358    1.3550 H   0  0  0  0  0  0  0  0  0  0  0  0
   14.3820   -2.7465    1.4902 C   0  0  0  0  0  0  0  0  0  0  0  0
   14.5296   -2.4336    2.8103 N   0  0  0  0  0  0  0  0  0  0  0  0
   13.7265   -2.0533    3.3081 H   0  0  0  0  0  0  0  0  0  0  0  0
   15.4730   -2.2433    3.1448 H   0  0  0  0  0  0  0  0  0  0  0  0
   15.3409   -3.1347    0.7168 N   0  0  0  0  0  4  0  0  0  0  0  0
   16.3003   -3.2591    1.0371 H   0  0  0  0  0  0  0  0  0  0  0  0
   14.3452   -5.6831   -1.7635 C   0  0  0  0  0  0  0  0  0  0  0  0
   13.3992   -5.2882   -2.1270 H   0  0  0  0  0  0  0  0  0  0  0  0
   14.6680   -7.0216   -2.0206 C   0  0  0  0  0  0  0  0  0  0  0  0
   13.9820   -7.6588   -2.5695 H   0  0  0  0  0  0  0  0  0  0  0  0
  1  2  1  0
  2  3  2  0
  3  4  1  0
  3  5  1  0
  5  6  1  0
  5  7  2  0
  7  8  1  0
  8  9  1  0
  9 10  2  0
 10 11  1  0
 10 12  1  0
 12 13  1  0
 12 14  2  0
 14 15  1  0
 14 16  1  0
 16 17  1  0
 17 18  1  0
 17 19  1  0
 19 20  1  0
 19 21  1  0
 19 22  1  0
 22 23  1  0
 22 24  1  0
 22 25  1  0
 25 26  1  0
 26 27  1  0
 26 28  1  0
 26 29  1  0
 29 30  1  0
 29 31  1  0
 16 32  2  0
 32 33  1  0
  8 34  1  0
 34 35  2  0
 34 36  1  0
 36 37  1  0
 37 38  1  0
 37 39  1  0
 37 40  1  0
 36 41  1  0
 41 42  1  0
 42 43  1  0
 42 44  1  0
 41 45  2  0
 45 46  1  0
  7 47  1  0
 47 48  1  0
 47 49  2  0
 49 50  1  0
 49  2  1  0
 45  8  1  0
 32  9  1  0
 29 17  1  0
M  CHG  1  45   1
M  END
>  <score>  (136) 
5.81636

$$$$

     RDKit          3D

 48 51  0  0  0  0  0  0  0  0999 V2000
   16.1037   -8.4566   -1.6219 H   0  0  0  0  0  0  0  0  0  0  0  0
   15.8572   -7.4076   -1.4828 C   0  0  0  0  0  0  0  0  0  0  0  0
   16.7418   -6.5655   -0.8031 C   0  0  0  0  0  0  0  0  0  0  0  0
   17.6772   -6.9544   -0.4128 H   0  0  0  0  0  0  0  0  0  0  0  0
   16.4131   -5.2209   -0.6030 C   0  0  0  0  0  0  0  0  0  0  0  0
   17.0924   -4.5737   -0.0555 H   0  0  0  0  0  0  0  0  0  0  0  0
   15.1956   -4.6961   -1.0638 C   0  0  0  0  0  0  0  0  0  0  0  0
   14.8288   -3.2442   -0.7622 C   0  0  0  0  0  0  0  0  0  0  0  0
   15.3971   -2.2345   -1.7538 C   0  0  0  0  0  0  0  0  0  0  0  0
   15.9370   -2.6265   -2.9903 C   0  0  0  0  0  0  0  0  0  0  0  0
   15.9923   -3.6807   -3.2375 H   0  0  0  0  0  0  0  0  0  0  0  0
   16.4056   -1.6765   -3.9072 C   0  0  0  0  0  0  0  0  0  0  0  0
   16.8307   -1.9852   -4.8553 H   0  0  0  0  0  0  0  0  0  0  0  0
   16.3224   -0.3156   -3.6051 C   0  0  0  0  0  0  0  0  0  0  0  0
   16.6832    0.4369   -4.3001 H   0  0  0  0  0  0  0  0  0  0  0  0
   15.7914    0.0967   -2.3824 C   0  0  0  0  0  0  0  0  0  0  0  0
   15.7162    1.5199   -2.0763 C   0  0  0  0  0  0  0  0  0  0  0  0
   15.2749    2.5625   -2.9551 C   0  0  0  0  0  0  0  0  0  0  0  0
   14.7270    2.2957   -4.3188 C   0  0  0  0  0  0  0  0  0  0  0  0
   14.1783    3.1662   -4.6845 H   0  0  0  0  0  0  0  0  0  0  0  0
   15.5393    2.0704   -5.0158 H   0  0  0  0  0  0  0  0  0  0  0  0
   14.0481    1.4438   -4.2683 H   0  0  0  0  0  0  0  0  0  0  0  0
   15.3332    3.7301   -2.3662 N   0  0  0  0  0  0  0  0  0  0  0  0
   15.7930    3.4889   -1.0314 O   0  0  0  0  0  0  0  0  0  0  0  0
   16.0212    2.1507   -0.9151 C   0  0  0  0  0  0  0  0  0  0  0  0
   16.5001    1.5179    0.3275 C   0  0  0  0  0  0  0  0  0  0  0  0
   16.7241    0.4584    0.1795 H   0  0  0  0  0  0  0  0  0  0  0  0
   15.7214    1.6056    1.0527 H   0  0  0  0  0  0  0  0  0  0  0  0
   17.3713    2.0520    0.7147 H   0  0  0  0  0  0  0  0  0  0  0  0
   15.3362   -0.8573   -1.4654 C   0  0  0  0  0  0  0  0  0  0  0  0
   14.9105   -0.5112   -0.5274 H   0  0  0  0  0  0  0  0  0  0  0  0
   13.3100   -3.0355   -0.5908 C   0  0  0  0  0  0  0  0  0  0  0  0
   12.4444   -3.1367   -1.4628 O   0  0  0  0  0  0  0  0  0  0  0  0
   13.0338   -2.6797    0.7130 N   0  0  0  0  0  0  0  0  0  0  0  0
   11.7299   -2.3138    1.2751 C   0  0  0  0  0  0  0  0  0  0  0  0
   11.7170   -1.2563    1.5615 H   0  0  0  0  0  0  0  0  0  0  0  0
   11.5062   -2.9160    2.1631 H   0  0  0  0  0  0  0  0  0  0  0  0
   10.9262   -2.4769    0.5472 H   0  0  0  0  0  0  0  0  0  0  0  0
   14.2423   -2.6179    1.3747 C   0  0  0  0  0  0  0  0  0  0  0  0
   14.4150   -2.2897    2.6835 N   0  0  0  0  0  0  0  0  0  0  0  0
   13.6016   -2.1234    3.2730 H   0  0  0  0  0  0  0  0  0  0  0  0
   15.3515   -2.3298    3.0873 H   0  0  0  0  0  0  0  0  0  0  0  0
   15.2442   -2.9101    0.6149 N   0  0  0  0  0  4  0  0  0  0  0  0
   16.2105   -2.9683    0.9445 H   0  0  0  0  0  0  0  0  0  0  0  0
   14.3187   -5.5502   -1.7606 C   0  0  0  0  0  0  0  0  0  0  0  0
   13.3660   -5.1740   -2.1221 H   0  0  0  0  0  0  0  0  0  0  0  0
   14.6482   -6.8981   -1.9673 C   0  0  0  0  0  0  0  0  0  0  0  0
   13.9596   -7.5569   -2.4881 H   0  0  0  0  0  0  0  0  0  0  0  0
  1  2  1  0
  2  3  2  0
  3  4  1  0
  3  5  1  0
  5  6  1  0
  5  7  2  0
  7  8  1  0
  8  9  1  0
  9 10  2  0
 10 11  1  0
 10 12  1  0
 12 13  1  0
 12 14  2  0
 14 15  1  0
 14 16  1  0
 16 17  1  0
 17 18  1  0
 18 19  1  0
 19 20  1  0
 19 21  1  0
 19 22  1  0
 18 23  2  0
 23 24  1  0
 24 25  1  0
 25 26  1  0
 26 27  1  0
 26 28  1  0
 26 29  1  0
 16 30  2  0
 30 31  1  0
  8 32  1  0
 32 33  2  0
 32 34  1  0
 34 35  1  0
 35 36  1  0
 35 37  1  0
 35 38  1  0
 34 39  1  0
 39 40  1  0
 40 41  1  0
 40 42  1  0
 39 43  2  0
 43 44  1  0
  7 45  1  0
 45 46  1  0
 45 47  2  0
 47 48  1  0
 47  2  1  0
 43  8  1  0
 30  9  1  0
 25 17  2  0
M  CHG  1  43   1
M  END
>  <score>  (137) 
5.80441

$$$$

     RDKit          3D

 46 49  0  0  0  0  0  0  0  0999 V2000
   16.1168   -8.4509   -1.6879 H   0  0  0  0  0  0  0  0  0  0  0  0
   15.8728   -7.4094   -1.5100 C   0  0  0  0  0  0  0  0  0  0  0  0
   16.7737   -6.5876   -0.8239 C   0  0  0  0  0  0  0  0  0  0  0  0
   17.7183   -6.9894   -0.4626 H   0  0  0  0  0  0  0  0  0  0  0  0
   16.4547   -5.2441   -0.6006 C   0  0  0  0  0  0  0  0  0  0  0  0
   17.1467   -4.6106   -0.0534 H   0  0  0  0  0  0  0  0  0  0  0  0
   15.2344   -4.7090   -1.0454 C   0  0  0  0  0  0  0  0  0  0  0  0
   14.8596   -3.2674   -0.7400 C   0  0  0  0  0  0  0  0  0  0  0  0
   15.3270   -2.2697   -1.7786 C   0  0  0  0  0  0  0  0  0  0  0  0
   15.9184   -2.6588   -2.9912 C   0  0  0  0  0  0  0  0  0  0  0  0
   16.0104   -3.7148   -3.2328 H   0  0  0  0  0  0  0  0  0  0  0  0
   16.4244   -1.6920   -3.8675 C   0  0  0  0  0  0  0  0  0  0  0  0
   16.9196   -1.9939   -4.7854 H   0  0  0  0  0  0  0  0  0  0  0  0
   16.3295   -0.3341   -3.5386 C   0  0  0  0  0  0  0  0  0  0  0  0
   16.7567    0.4167   -4.1951 H   0  0  0  0  0  0  0  0  0  0  0  0
   15.6938    0.0730   -2.3576 C   0  0  0  0  0  0  0  0  0  0  0  0
   15.6182    1.4940   -2.0025 C   0  0  0  0  0  0  0  0  0  0  0  0
   14.4481    2.0453   -1.4603 C   0  0  0  0  0  0  0  0  0  0  0  0
   13.5913    1.4041   -1.2632 H   0  0  0  0  0  0  0  0  0  0  0  0
   14.3772    3.4223   -1.2114 C   0  0  0  0  0  0  0  0  0  0  0  0
   13.4622    3.8635   -0.8343 H   0  0  0  0  0  0  0  0  0  0  0  0
   15.4756    4.2495   -1.4614 C   0  0  0  0  0  0  0  0  0  0  0  0
   15.3960    5.5815   -1.2387 F   0  0  0  0  0  0  0  0  0  0  0  0
   16.6536    3.6876   -1.9499 C   0  0  0  0  0  0  0  0  0  0  0  0
   17.5167    4.3156   -2.1294 H   0  0  0  0  0  0  0  0  0  0  0  0
   16.7298    2.3204   -2.2180 C   0  0  0  0  0  0  0  0  0  0  0  0
   17.8874    1.7884   -2.6655 F   0  0  0  0  0  0  0  0  0  0  0  0
   15.1858   -0.9012   -1.4998 C   0  0  0  0  0  0  0  0  0  0  0  0
   14.7249   -0.5917   -0.5673 H   0  0  0  0  0  0  0  0  0  0  0  0
   13.3448   -3.1157   -0.4796 C   0  0  0  0  0  0  0  0  0  0  0  0
   12.4116   -3.2912   -1.2621 O   0  0  0  0  0  0  0  0  0  0  0  0
   13.1593   -2.6938    0.8161 N   0  0  0  0  0  0  0  0  0  0  0  0
   11.8920   -2.2801    1.4091 C   0  0  0  0  0  0  0  0  0  0  0  0
   11.8529   -2.5144    2.4790 H   0  0  0  0  0  0  0  0  0  0  0  0
   11.0763   -2.8169    0.9144 H   0  0  0  0  0  0  0  0  0  0  0  0
   11.7437   -1.1993    1.2952 H   0  0  0  0  0  0  0  0  0  0  0  0
   14.4015   -2.5553    1.3908 C   0  0  0  0  0  0  0  0  0  0  0  0
   14.5696   -2.1515    2.6754 N   0  0  0  0  0  0  0  0  0  0  0  0
   13.7931   -2.3366    3.3105 H   0  0  0  0  0  0  0  0  0  0  0  0
   15.5170   -2.1610    3.0405 H   0  0  0  0  0  0  0  0  0  0  0  0
   15.3719   -2.8563    0.5881 N   0  0  0  0  0  4  0  0  0  0  0  0
   16.3638   -2.8052    0.8395 H   0  0  0  0  0  0  0  0  0  0  0  0
   14.3494   -5.5430   -1.7541 C   0  0  0  0  0  0  0  0  0  0  0  0
   13.4028   -5.1488   -2.1137 H   0  0  0  0  0  0  0  0  0  0  0  0
   14.6632   -6.8878   -1.9833 C   0  0  0  0  0  0  0  0  0  0  0  0
   13.9686   -7.5258   -2.5244 H   0  0  0  0  0  0  0  0  0  0  0  0
  1  2  1  0
  2  3  2  0
  3  4  1  0
  3  5  1  0
  5  6  1  0
  5  7  2  0
  7  8  1  0
  8  9  1  0
  9 10  2  0
 10 11  1  0
 10 12  1  0
 12 13  1  0
 12 14  2  0
 14 15  1  0
 14 16  1  0
 16 17  1  0
 17 18  2  0
 18 19  1  0
 18 20  1  0
 20 21  1  0
 20 22  2  0
 22 23  1  0
 22 24  1  0
 24 25  1  0
 24 26  2  0
 26 27  1  0
 16 28  2  0
 28 29  1  0
  8 30  1  0
 30 31  2  0
 30 32  1  0
 32 33  1  0
 33 34  1  0
 33 35  1  0
 33 36  1  0
 32 37  1  0
 37 38  1  0
 38 39  1  0
 38 40  1  0
 37 41  2  0
 41 42  1  0
  7 43  1  0
 43 44  1  0
 43 45  2  0
 45 46  1  0
 45  2  1  0
 41  8  1  0
 28  9  1  0
 26 17  1  0
M  CHG  1  41   1
M  END
>  <score>  (138) 
5.79875

$$$$

     RDKit          3D

 50 54  0  0  0  0  0  0  0  0999 V2000
   16.0971   -8.4341   -1.6472 H   0  0  0  0  0  0  0  0  0  0  0  0
   15.8570   -7.3875   -1.4900 C   0  0  0  0  0  0  0  0  0  0  0  0
   16.7528   -6.5602   -0.8045 C   0  0  0  0  0  0  0  0  0  0  0  0
   17.6897   -6.9546   -0.4241 H   0  0  0  0  0  0  0  0  0  0  0  0
   16.4374   -5.2173   -0.5916 C   0  0  0  0  0  0  0  0  0  0  0  0
   17.1296   -4.5775   -0.0498 H   0  0  0  0  0  0  0  0  0  0  0  0
   15.2171   -4.6918   -1.0391 C   0  0  0  0  0  0  0  0  0  0  0  0
   14.8472   -3.2558   -0.7298 C   0  0  0  0  0  0  0  0  0  0  0  0
   15.4001   -2.2539   -1.7296 C   0  0  0  0  0  0  0  0  0  0  0  0
   15.9264   -2.6251   -2.9771 C   0  0  0  0  0  0  0  0  0  0  0  0
   15.9925   -3.6757   -3.2395 H   0  0  0  0  0  0  0  0  0  0  0  0
   16.3719   -1.6565   -3.8876 C   0  0  0  0  0  0  0  0  0  0  0  0
   16.7988   -1.9588   -4.8388 H   0  0  0  0  0  0  0  0  0  0  0  0
   16.2574   -0.2973   -3.5711 C   0  0  0  0  0  0  0  0  0  0  0  0
   16.6133    0.4583   -4.2662 H   0  0  0  0  0  0  0  0  0  0  0  0
   15.7037    0.0925   -2.3461 C   0  0  0  0  0  0  0  0  0  0  0  0
   15.5848    1.5034   -1.9808 C   0  0  0  0  0  0  0  0  0  0  0  0
   16.0531    2.0115   -0.7938 C   0  0  0  0  0  0  0  0  0  0  0  0
   16.4955    1.4300    0.0156 H   0  0  0  0  0  0  0  0  0  0  0  0
   15.8803    3.3962   -0.8287 N   0  0  0  0  0  0  0  0  0  0  0  0
   16.0842    4.0280   -0.0597 H   0  0  0  0  0  0  0  0  0  0  0  0
   15.2716    3.7739   -2.0178 C   0  0  0  0  0  0  0  0  0  0  0  0
   14.8805    5.0257   -2.5001 C   0  0  0  0  0  0  0  0  0  0  0  0
   15.1414    5.9320   -1.9662 H   0  0  0  0  0  0  0  0  0  0  0  0
   14.1271    5.0861   -3.6770 C   0  0  0  0  0  0  0  0  0  0  0  0
   13.7633    6.0353   -4.0444 H   0  0  0  0  0  0  0  0  0  0  0  0
   13.8128    3.9196   -4.3782 C   0  0  0  0  0  0  0  0  0  0  0  0
   13.2140    3.9741   -5.2781 H   0  0  0  0  0  0  0  0  0  0  0  0
   14.2573    2.6760   -3.9200 C   0  0  0  0  0  0  0  0  0  0  0  0
   13.9956    1.7645   -4.4418 H   0  0  0  0  0  0  0  0  0  0  0  0
   15.0114    2.6153   -2.7428 C   0  0  0  0  0  0  0  0  0  0  0  0
   15.3101   -0.8874   -1.4286 C   0  0  0  0  0  0  0  0  0  0  0  0
   14.9024   -0.5692   -0.4743 H   0  0  0  0  0  0  0  0  0  0  0  0
   13.3288   -3.0521   -0.5651 C   0  0  0  0  0  0  0  0  0  0  0  0
   12.4627   -3.2032   -1.4271 O   0  0  0  0  0  0  0  0  0  0  0  0
   13.0548   -2.6746    0.7341 N   0  0  0  0  0  0  0  0  0  0  0  0
   11.7500   -2.3103    1.2859 C   0  0  0  0  0  0  0  0  0  0  0  0
   11.5262   -2.9083    2.1765 H   0  0  0  0  0  0  0  0  0  0  0  0
   11.7376   -1.2511    1.5648 H   0  0  0  0  0  0  0  0  0  0  0  0
   10.9510   -2.4804    0.5545 H   0  0  0  0  0  0  0  0  0  0  0  0
   14.2608   -2.6007    1.3947 C   0  0  0  0  0  0  0  0  0  0  0  0
   14.4404   -2.2352    2.6950 N   0  0  0  0  0  0  0  0  0  0  0  0
   15.3730   -2.3038    3.0981 H   0  0  0  0  0  0  0  0  0  0  0  0
   13.6261   -2.1166    3.2943 H   0  0  0  0  0  0  0  0  0  0  0  0
   15.2632   -2.9201    0.6464 N   0  0  0  0  0  4  0  0  0  0  0  0
   16.2252   -2.9929    0.9799 H   0  0  0  0  0  0  0  0  0  0  0  0
   14.3320   -5.5225   -1.7445 C   0  0  0  0  0  0  0  0  0  0  0  0
   13.3858   -5.1266   -2.1024 H   0  0  0  0  0  0  0  0  0  0  0  0
   14.6500   -6.8651   -1.9673 C   0  0  0  0  0  0  0  0  0  0  0  0
   13.9513   -7.5018   -2.5005 H   0  0  0  0  0  0  0  0  0  0  0  0
  1  2  1  0
  2  3  2  0
  3  4  1  0
  3  5  1  0
  5  6  1  0
  5  7  2  0
  7  8  1  0
  8  9  1  0
  9 10  2  0
 10 11  1  0
 10 12  1  0
 12 13  1  0
 12 14  2  0
 14 15  1  0
 14 16  1  0
 16 17  1  0
 17 18  2  0
 18 19  1  0
 18 20  1  0
 20 21  1  0
 20 22  1  0
 22 23  2  0
 23 24  1  0
 23 25  1  0
 25 26  1  0
 25 27  2  0
 27 28  1  0
 27 29  1  0
 29 30  1  0
 29 31  2  0
 16 32  2  0
 32 33  1  0
  8 34  1  0
 34 35  2  0
 34 36  1  0
 36 37  1  0
 37 38  1  0
 37 39  1  0
 37 40  1  0
 36 41  1  0
 41 42  1  0
 42 43  1  0
 42 44  1  0
 41 45  2  0
 45 46  1  0
  7 47  1  0
 47 48  1  0
 47 49  2  0
 49 50  1  0
 49  2  1  0
 45  8  1  0
 32  9  1  0
 31 17  1  0
 31 22  1  0
M  CHG  1  45   1
M  END
>  <score>  (139) 
5.79845

$$$$

     RDKit          3D

 46 48  0  0  0  0  0  0  0  0999 V2000
   16.1276   -8.4910   -1.6107 H   0  0  0  0  0  0  0  0  0  0  0  0
   15.8545   -7.4477   -1.4684 C   0  0  0  0  0  0  0  0  0  0  0  0
   16.7261   -6.5885   -0.7971 C   0  0  0  0  0  0  0  0  0  0  0  0
   17.6770   -6.9548   -0.4204 H   0  0  0  0  0  0  0  0  0  0  0  0
   16.3821   -5.2461   -0.6065 C   0  0  0  0  0  0  0  0  0  0  0  0
   17.0710   -4.5990   -0.0722 H   0  0  0  0  0  0  0  0  0  0  0  0
   15.1623   -4.7234   -1.0708 C   0  0  0  0  0  0  0  0  0  0  0  0
   14.8068   -3.2531   -0.7871 C   0  0  0  0  0  0  0  0  0  0  0  0
   15.3895   -2.2454   -1.7834 C   0  0  0  0  0  0  0  0  0  0  0  0
   15.9460   -2.6422   -3.0120 C   0  0  0  0  0  0  0  0  0  0  0  0
   16.0083   -3.6948   -3.2733 H   0  0  0  0  0  0  0  0  0  0  0  0
   16.4248   -1.6883   -3.9195 C   0  0  0  0  0  0  0  0  0  0  0  0
   16.8582   -2.0060   -4.8633 H   0  0  0  0  0  0  0  0  0  0  0  0
   16.3356   -0.3231   -3.6283 C   0  0  0  0  0  0  0  0  0  0  0  0
   16.6964    0.4020   -4.3538 H   0  0  0  0  0  0  0  0  0  0  0  0
   15.7664    0.1081   -2.4213 C   0  0  0  0  0  0  0  0  0  0  0  0
   15.6533    1.5862   -2.1033 C   0  0  0  0  0  0  0  0  0  0  0  0
   15.8131    1.7478   -1.0331 H   0  0  0  0  0  0  0  0  0  0  0  0
   16.4273    2.1443   -2.6385 H   0  0  0  0  0  0  0  0  0  0  0  0
   14.3419    2.0999   -2.4813 N   0  0  0  0  0  0  0  0  0  0  0  0
   13.6692    1.4709   -2.8956 H   0  0  0  0  0  0  0  0  0  0  0  0
   13.9509    3.4068   -2.2870 C   0  0  0  0  0  0  0  0  0  0  0  0
   14.7254    4.1988   -1.7880 O   0  0  0  0  0  0  0  0  0  0  0  0
   12.5684    3.8722   -2.6916 C   0  0  0  0  0  0  0  0  0  0  0  0
   12.4857    4.9554   -2.5785 H   0  0  0  0  0  0  0  0  0  0  0  0
   12.3810    3.6133   -3.7324 H   0  0  0  0  0  0  0  0  0  0  0  0
   11.8230    3.3956   -2.0574 H   0  0  0  0  0  0  0  0  0  0  0  0
   15.3157   -0.8620   -1.5081 C   0  0  0  0  0  0  0  0  0  0  0  0
   14.8899   -0.5302   -0.5654 H   0  0  0  0  0  0  0  0  0  0  0  0
   13.2902   -3.0226   -0.6096 C   0  0  0  0  0  0  0  0  0  0  0  0
   12.4217   -3.0761   -1.4806 O   0  0  0  0  0  0  0  0  0  0  0  0
   13.0194   -2.6683    0.6974 N   0  0  0  0  0  0  0  0  0  0  0  0
   11.7185   -2.3125    1.2629 C   0  0  0  0  0  0  0  0  0  0  0  0
   11.5013   -2.9207    2.1457 H   0  0  0  0  0  0  0  0  0  0  0  0
   11.6929   -1.2591    1.5589 H   0  0  0  0  0  0  0  0  0  0  0  0
   10.9154   -2.4769    0.5371 H   0  0  0  0  0  0  0  0  0  0  0  0
   14.2237   -2.6313    1.3656 C   0  0  0  0  0  0  0  0  0  0  0  0
   14.3897   -2.3399    2.6916 N   0  0  0  0  0  0  0  0  0  0  0  0
   15.3246   -2.3591    3.0975 H   0  0  0  0  0  0  0  0  0  0  0  0
   13.5790   -2.1269    3.2683 H   0  0  0  0  0  0  0  0  0  0  0  0
   15.2180   -2.9051    0.5910 N   0  0  0  0  0  4  0  0  0  0  0  0
   16.1914   -2.8947    0.8956 H   0  0  0  0  0  0  0  0  0  0  0  0
   14.2986   -5.6001   -1.7688 C   0  0  0  0  0  0  0  0  0  0  0  0
   13.3522   -5.2510   -2.1726 H   0  0  0  0  0  0  0  0  0  0  0  0
   14.6428   -6.9511   -1.9596 C   0  0  0  0  0  0  0  0  0  0  0  0
   13.9730   -7.6238   -2.4892 H   0  0  0  0  0  0  0  0  0  0  0  0
  1  2  1  0
  2  3  2  0
  3  4  1  0
  3  5  1  0
  5  6  1  0
  5  7  2  0
  7  8  1  0
  8  9  1  0
  9 10  2  0
 10 11  1  0
 10 12  1  0
 12 13  1  0
 12 14  2  0
 14 15  1  0
 14 16  1  0
 16 17  1  0
 17 18  1  0
 17 19  1  0
 17 20  1  0
 20 21  1  0
 20 22  1  0
 22 23  2  0
 22 24  1  0
 24 25  1  0
 24 26  1  0
 24 27  1  0
 16 28  2  0
 28 29  1  0
  8 30  1  0
 30 31  2  0
 30 32  1  0
 32 33  1  0
 33 34  1  0
 33 35  1  0
 33 36  1  0
 32 37  1  0
 37 38  1  0
 38 39  1  0
 38 40  1  0
 37 41  2  0
 41 42  1  0
  7 43  1  0
 43 44  1  0
 43 45  2  0
 45 46  1  0
 45  2  1  0
 41  8  1  0
 28  9  1  0
M  CHG  1  41   1
M  END
>  <score>  (140) 
5.79187

$$$$

     RDKit          3D

 57 60  0  0  0  0  0  0  0  0999 V2000
   16.1771   -8.4522   -1.7460 H   0  0  0  0  0  0  0  0  0  0  0  0
   15.9196   -7.4196   -1.5284 C   0  0  0  0  0  0  0  0  0  0  0  0
   16.8005   -6.6116   -0.8020 C   0  0  0  0  0  0  0  0  0  0  0  0
   17.7481   -7.0151   -0.4557 H   0  0  0  0  0  0  0  0  0  0  0  0
   16.4640   -5.2817   -0.5179 C   0  0  0  0  0  0  0  0  0  0  0  0
   17.1580   -4.6642    0.0445 H   0  0  0  0  0  0  0  0  0  0  0  0
   15.2414   -4.7387   -0.9508 C   0  0  0  0  0  0  0  0  0  0  0  0
   14.8681   -3.2855   -0.6613 C   0  0  0  0  0  0  0  0  0  0  0  0
   15.3195   -2.3162   -1.7493 C   0  0  0  0  0  0  0  0  0  0  0  0
   15.9605   -2.7632   -2.9141 C   0  0  0  0  0  0  0  0  0  0  0  0
   16.1841   -3.8196   -3.0314 H   0  0  0  0  0  0  0  0  0  0  0  0
   16.3035   -1.8635   -3.9275 C   0  0  0  0  0  0  0  0  0  0  0  0
   16.7823   -2.2253   -4.8286 H   0  0  0  0  0  0  0  0  0  0  0  0
   16.0365   -0.4974   -3.7829 C   0  0  0  0  0  0  0  0  0  0  0  0
   16.3173    0.1892   -4.5760 H   0  0  0  0  0  0  0  0  0  0  0  0
   15.4213   -0.0173   -2.6182 C   0  0  0  0  0  0  0  0  0  0  0  0
   15.1929    1.4700   -2.3911 C   0  0  0  0  0  0  0  0  0  0  0  0
   15.2325    2.0161   -3.3393 H   0  0  0  0  0  0  0  0  0  0  0  0
   14.2025    1.6267   -1.9548 H   0  0  0  0  0  0  0  0  0  0  0  0
   16.2618    2.0181   -1.4331 C   0  0  0  0  0  0  0  0  0  0  0  0
   16.5393    1.2102   -0.7491 H   0  0  0  0  0  0  0  0  0  0  0  0
   17.1544    2.2973   -1.9954 H   0  0  0  0  0  0  0  0  0  0  0  0
   15.8286    3.1600   -0.5935 N   0  0  0  0  0  0  0  0  0  0  0  0
   15.2327    4.3868   -1.1692 C   0  0  0  0  0  0  0  0  0  0  0  0
   16.0071    5.0312   -1.6083 H   0  0  0  0  0  0  0  0  0  0  0  0
   14.5298    4.1177   -1.9646 H   0  0  0  0  0  0  0  0  0  0  0  0
   14.4535    5.1680   -0.0892 C   0  0  0  0  0  0  0  0  0  0  0  0
   13.5159    4.6282    0.0854 H   0  0  0  0  0  0  0  0  0  0  0  0
   14.2230    6.1735   -0.4732 H   0  0  0  0  0  0  0  0  0  0  0  0
   15.1567    5.2985    1.2760 C   0  0  0  0  0  0  0  0  0  0  0  0
   14.3912    5.5304    2.0236 H   0  0  0  0  0  0  0  0  0  0  0  0
   15.8541    6.1447    1.2623 H   0  0  0  0  0  0  0  0  0  0  0  0
   15.8964    4.0129    1.6888 C   0  0  0  0  0  0  0  0  0  0  0  0
   15.1764    3.2614    2.0326 H   0  0  0  0  0  0  0  0  0  0  0  0
   16.5741    4.2349    2.5142 H   0  0  0  0  0  0  0  0  0  0  0  0
   16.7176    3.4433    0.5405 C   0  0  0  0  0  0  0  0  0  0  0  0
   17.2512    2.5418    0.8741 H   0  0  0  0  0  0  0  0  0  0  0  0
   17.4476    4.1871    0.2224 H   0  0  0  0  0  0  0  0  0  0  0  0
   15.0516   -0.9377   -1.6231 C   0  0  0  0  0  0  0  0  0  0  0  0
   14.5515   -0.5678   -0.7322 H   0  0  0  0  0  0  0  0  0  0  0  0
   13.3528   -3.1226   -0.4222 C   0  0  0  0  0  0  0  0  0  0  0  0
   12.4443   -3.3903   -1.2063 O   0  0  0  0  0  0  0  0  0  0  0  0
   13.1349   -2.6042    0.8352 N   0  0  0  0  0  0  0  0  0  0  0  0
   11.8415   -2.2552    1.4281 C   0  0  0  0  0  0  0  0  0  0  0  0
   11.8150   -1.1929    1.6952 H   0  0  0  0  0  0  0  0  0  0  0  0
   11.0268   -2.4475    0.7206 H   0  0  0  0  0  0  0  0  0  0  0  0
   11.6560   -2.8477    2.3311 H   0  0  0  0  0  0  0  0  0  0  0  0
   14.3649   -2.4797    1.4341 C   0  0  0  0  0  0  0  0  0  0  0  0
   14.5618   -2.0419    2.7069 N   0  0  0  0  0  0  0  0  0  0  0  0
   15.4800   -2.2071    3.1083 H   0  0  0  0  0  0  0  0  0  0  0  0
   13.7531   -2.0245    3.3243 H   0  0  0  0  0  0  0  0  0  0  0  0
   15.3393   -2.8442    0.6690 N   0  0  0  0  0  4  0  0  0  0  0  0
   16.3192   -2.8611    0.9627 H   0  0  0  0  0  0  0  0  0  0  0  0
   14.3702   -5.5637   -1.6869 C   0  0  0  0  0  0  0  0  0  0  0  0
   13.4233   -5.1695   -2.0438 H   0  0  0  0  0  0  0  0  0  0  0  0
   14.7029   -6.8931   -1.9721 C   0  0  0  0  0  0  0  0  0  0  0  0
   14.0155   -7.5156   -2.5379 H   0  0  0  0  0  0  0  0  0  0  0  0
  1  2  1  0
  2  3  2  0
  3  4  1  0
  3  5  1  0
  5  6  1  0
  5  7  2  0
  7  8  1  0
  8  9  1  0
  9 10  2  0
 10 11  1  0
 10 12  1  0
 12 13  1  0
 12 14  2  0
 14 15  1  0
 14 16  1  0
 16 17  1  0
 17 18  1  0
 17 19  1  0
 17 20  1  0
 20 21  1  0
 20 22  1  0
 20 23  1  0
 23 24  1  0
 24 25  1  0
 24 26  1  0
 24 27  1  0
 27 28  1  0
 27 29  1  0
 27 30  1  0
 30 31  1  0
 30 32  1  0
 30 33  1  0
 33 34  1  0
 33 35  1  0
 33 36  1  0
 36 37  1  0
 36 38  1  0
 16 39  2  0
 39 40  1  0
  8 41  1  0
 41 42  2  0
 41 43  1  0
 43 44  1  0
 44 45  1  0
 44 46  1  0
 44 47  1  0
 43 48  1  0
 48 49  1  0
 49 50  1  0
 49 51  1  0
 48 52  2  0
 52 53  1  0
  7 54  1  0
 54 55  1  0
 54 56  2  0
 56 57  1  0
 56  2  1  0
 52  8  1  0
 39  9  1  0
 36 23  1  0
M  CHG  1  52   1
M  END
>  <score>  (141) 
5.7916

$$$$

     RDKit          3D

 52 54  0  0  0  0  0  0  0  0999 V2000
   16.0916   -8.4161   -1.6418 H   0  0  0  0  0  0  0  0  0  0  0  0
   15.8574   -7.3666   -1.4906 C   0  0  0  0  0  0  0  0  0  0  0  0
   16.7514   -6.5410   -0.8025 C   0  0  0  0  0  0  0  0  0  0  0  0
   17.6849   -6.9407   -0.4171 H   0  0  0  0  0  0  0  0  0  0  0  0
   16.4381   -5.1951   -0.5926 C   0  0  0  0  0  0  0  0  0  0  0  0
   17.1393   -4.5638   -0.0530 H   0  0  0  0  0  0  0  0  0  0  0  0
   15.2188   -4.6619   -1.0465 C   0  0  0  0  0  0  0  0  0  0  0  0
   14.8324   -3.2226   -0.7411 C   0  0  0  0  0  0  0  0  0  0  0  0
   15.3589   -2.1992   -1.7386 C   0  0  0  0  0  0  0  0  0  0  0  0
   15.9205   -2.5865   -2.9613 C   0  0  0  0  0  0  0  0  0  0  0  0
   15.9915   -3.6406   -3.2037 H   0  0  0  0  0  0  0  0  0  0  0  0
   16.3999   -1.6364   -3.8634 C   0  0  0  0  0  0  0  0  0  0  0  0
   16.8305   -1.9564   -4.8051 H   0  0  0  0  0  0  0  0  0  0  0  0
   16.3321   -0.2774   -3.5562 C   0  0  0  0  0  0  0  0  0  0  0  0
   16.7246    0.4462   -4.2703 H   0  0  0  0  0  0  0  0  0  0  0  0
   15.7449    0.1477   -2.3466 C   0  0  0  0  0  0  0  0  0  0  0  0
   15.6552    1.5841   -2.0167 C   0  0  0  0  0  0  0  0  0  0  0  0
   16.4273    2.3749   -2.5431 O   0  0  0  0  0  0  0  0  0  0  0  0
   14.7322    2.0690   -1.1048 N   0  0  0  0  0  0  0  0  0  0  0  0
   14.2058    1.3799   -0.5806 H   0  0  0  0  0  0  0  0  0  0  0  0
   14.7789    3.4240   -0.5723 C   0  0  0  0  0  0  0  0  0  0  0  0
   16.1101    3.5971    0.1625 C   0  0  0  0  0  0  0  0  0  0  0  0
   16.2478    2.7938    0.8958 H   0  0  0  0  0  0  0  0  0  0  0  0
   16.9402    3.5643   -0.5526 H   0  0  0  0  0  0  0  0  0  0  0  0
   16.1368    4.5594    0.6841 H   0  0  0  0  0  0  0  0  0  0  0  0
   14.6532    4.4672   -1.6846 C   0  0  0  0  0  0  0  0  0  0  0  0
   13.7382    4.2910   -2.2611 H   0  0  0  0  0  0  0  0  0  0  0  0
   15.5149    4.4266   -2.3593 H   0  0  0  0  0  0  0  0  0  0  0  0
   14.6023    5.4716   -1.2455 H   0  0  0  0  0  0  0  0  0  0  0  0
   13.6120    3.6499    0.3855 C   0  0  0  0  0  0  0  0  0  0  0  0
   12.6661    3.3991   -0.1057 H   0  0  0  0  0  0  0  0  0  0  0  0
   13.5854    4.7022    0.6880 H   0  0  0  0  0  0  0  0  0  0  0  0
   13.7217    3.0438    1.2846 H   0  0  0  0  0  0  0  0  0  0  0  0
   15.2488   -0.8244   -1.4573 C   0  0  0  0  0  0  0  0  0  0  0  0
   14.7834   -0.5067   -0.5251 H   0  0  0  0  0  0  0  0  0  0  0  0
   13.3127   -3.0501   -0.5656 C   0  0  0  0  0  0  0  0  0  0  0  0
   12.4451   -3.2097   -1.4237 O   0  0  0  0  0  0  0  0  0  0  0  0
   13.0477   -2.6819    0.7391 N   0  0  0  0  0  0  0  0  0  0  0  0
   11.7484   -2.3154    1.2951 C   0  0  0  0  0  0  0  0  0  0  0  0
   11.7436   -1.2556    1.5726 H   0  0  0  0  0  0  0  0  0  0  0  0
   10.9512   -2.4837    0.5613 H   0  0  0  0  0  0  0  0  0  0  0  0
   11.5168   -2.9106    2.1863 H   0  0  0  0  0  0  0  0  0  0  0  0
   14.2600   -2.5932    1.3922 C   0  0  0  0  0  0  0  0  0  0  0  0
   14.4463   -2.2324    2.6938 N   0  0  0  0  0  0  0  0  0  0  0  0
   15.3813   -2.2960    3.0925 H   0  0  0  0  0  0  0  0  0  0  0  0
   13.6354   -2.1242    3.2996 H   0  0  0  0  0  0  0  0  0  0  0  0
   15.2582   -2.8916    0.6312 N   0  0  0  0  0  4  0  0  0  0  0  0
   16.2186   -2.9972    0.9651 H   0  0  0  0  0  0  0  0  0  0  0  0
   14.3352   -5.4981   -1.7475 C   0  0  0  0  0  0  0  0  0  0  0  0
   13.3856   -5.1077   -2.1037 H   0  0  0  0  0  0  0  0  0  0  0  0
   14.6512   -6.8422   -1.9660 C   0  0  0  0  0  0  0  0  0  0  0  0
   13.9490   -7.4790   -2.4940 H   0  0  0  0  0  0  0  0  0  0  0  0
  1  2  1  0
  2  3  2  0
  3  4  1  0
  3  5  1  0
  5  6  1  0
  5  7  2  0
  7  8  1  0
  8  9  1  0
  9 10  2  0
 10 11  1  0
 10 12  1  0
 12 13  1  0
 12 14  2  0
 14 15  1  0
 14 16  1  0
 16 17  1  0
 17 18  2  0
 17 19  1  0
 19 20  1  0
 19 21  1  0
 21 22  1  0
 22 23  1  0
 22 24  1  0
 22 25  1  0
 21 26  1  0
 26 27  1  0
 26 28  1  0
 26 29  1  0
 21 30  1  0
 30 31  1  0
 30 32  1  0
 30 33  1  0
 16 34  2  0
 34 35  1  0
  8 36  1  0
 36 37  2  0
 36 38  1  0
 38 39  1  0
 39 40  1  0
 39 41  1  0
 39 42  1  0
 38 43  1  0
 43 44  1  0
 44 45  1  0
 44 46  1  0
 43 47  2  0
 47 48  1  0
  7 49  1  0
 49 50  1  0
 49 51  2  0
 51 52  1  0
 51  2  1  0
 47  8  1  0
 34  9  1  0
M  CHG  1  47   1
M  END
>  <score>  (142) 
5.79145

$$$$

     RDKit          3D

 46 48  0  0  0  0  0  0  0  0999 V2000
   16.1272   -8.4908   -1.6108 H   0  0  0  0  0  0  0  0  0  0  0  0
   15.8544   -7.4472   -1.4687 C   0  0  0  0  0  0  0  0  0  0  0  0
   16.7263   -6.5881   -0.7976 C   0  0  0  0  0  0  0  0  0  0  0  0
   17.6767   -6.9549   -0.4201 H   0  0  0  0  0  0  0  0  0  0  0  0
   16.3826   -5.2455   -0.6069 C   0  0  0  0  0  0  0  0  0  0  0  0
   17.0706   -4.5980   -0.0716 H   0  0  0  0  0  0  0  0  0  0  0  0
   15.1629   -4.7231   -1.0711 C   0  0  0  0  0  0  0  0  0  0  0  0
   14.8064   -3.2534   -0.7867 C   0  0  0  0  0  0  0  0  0  0  0  0
   15.3883   -2.2474   -1.7835 C   0  0  0  0  0  0  0  0  0  0  0  0
   15.9457   -2.6432   -3.0119 C   0  0  0  0  0  0  0  0  0  0  0  0
   16.0078   -3.6952   -3.2722 H   0  0  0  0  0  0  0  0  0  0  0  0
   16.4241   -1.6913   -3.9217 C   0  0  0  0  0  0  0  0  0  0  0  0
   16.8574   -2.0070   -4.8654 H   0  0  0  0  0  0  0  0  0  0  0  0
   16.3438   -0.3278   -3.6277 C   0  0  0  0  0  0  0  0  0  0  0  0
   16.6960    0.4049   -4.3489 H   0  0  0  0  0  0  0  0  0  0  0  0
   15.7977    0.0949   -2.4140 C   0  0  0  0  0  0  0  0  0  0  0  0
   15.6712    1.5697   -2.1105 C   0  0  0  0  0  0  0  0  0  0  0  0
   16.4127    2.1541   -2.6567 H   0  0  0  0  0  0  0  0  0  0  0  0
   15.8297    1.7575   -1.0467 H   0  0  0  0  0  0  0  0  0  0  0  0
   14.2846    2.0568   -2.4961 C   0  0  0  0  0  0  0  0  0  0  0  0
   13.4116    2.1395   -1.6512 O   0  0  0  0  0  0  0  0  0  0  0  0
   13.9851    2.4027   -3.7976 N   0  0  0  0  0  0  0  0  0  0  0  0
   14.7274    2.3181   -4.4789 H   0  0  0  0  0  0  0  0  0  0  0  0
   12.6613    2.8304   -4.2330 C   0  0  0  0  0  0  0  0  0  0  0  0
   12.3698    3.7438   -3.7091 H   0  0  0  0  0  0  0  0  0  0  0  0
   12.6485    3.0333   -5.3078 H   0  0  0  0  0  0  0  0  0  0  0  0
   11.9219    2.0524   -4.0250 H   0  0  0  0  0  0  0  0  0  0  0  0
   15.3234   -0.8648   -1.5065 C   0  0  0  0  0  0  0  0  0  0  0  0
   14.8910   -0.5220   -0.5705 H   0  0  0  0  0  0  0  0  0  0  0  0
   13.2904   -3.0214   -0.6097 C   0  0  0  0  0  0  0  0  0  0  0  0
   12.4231   -3.0790   -1.4801 O   0  0  0  0  0  0  0  0  0  0  0  0
   13.0195   -2.6694    0.6980 N   0  0  0  0  0  0  0  0  0  0  0  0
   11.7185   -2.3123    1.2627 C   0  0  0  0  0  0  0  0  0  0  0  0
   11.6932   -1.2588    1.5584 H   0  0  0  0  0  0  0  0  0  0  0  0
   10.9153   -2.4766    0.5373 H   0  0  0  0  0  0  0  0  0  0  0  0
   11.5013   -2.9200    2.1459 H   0  0  0  0  0  0  0  0  0  0  0  0
   14.2236   -2.6309    1.3659 C   0  0  0  0  0  0  0  0  0  0  0  0
   14.3903   -2.3398    2.6915 N   0  0  0  0  0  0  0  0  0  0  0  0
   15.3249   -2.3584    3.0969 H   0  0  0  0  0  0  0  0  0  0  0  0
   13.5789   -2.1262    3.2674 H   0  0  0  0  0  0  0  0  0  0  0  0
   15.2184   -2.9054    0.5910 N   0  0  0  0  0  4  0  0  0  0  0  0
   16.1907   -2.8959    0.8964 H   0  0  0  0  0  0  0  0  0  0  0  0
   14.2990   -5.5992   -1.7687 C   0  0  0  0  0  0  0  0  0  0  0  0
   13.3523   -5.2496   -2.1714 H   0  0  0  0  0  0  0  0  0  0  0  0
   14.6428   -6.9503   -1.9598 C   0  0  0  0  0  0  0  0  0  0  0  0
   13.9729   -7.6230   -2.4891 H   0  0  0  0  0  0  0  0  0  0  0  0
  1  2  1  0
  2  3  2  0
  3  4  1  0
  3  5  1  0
  5  6  1  0
  5  7  2  0
  7  8  1  0
  8  9  1  0
  9 10  2  0
 10 11  1  0
 10 12  1  0
 12 13  1  0
 12 14  2  0
 14 15  1  0
 14 16  1  0
 16 17  1  0
 17 18  1  0
 17 19  1  0
 17 20  1  0
 20 21  2  0
 20 22  1  0
 22 23  1  0
 22 24  1  0
 24 25  1  0
 24 26  1  0
 24 27  1  0
 16 28  2  0
 28 29  1  0
  8 30  1  0
 30 31  2  0
 30 32  1  0
 32 33  1  0
 33 34  1  0
 33 35  1  0
 33 36  1  0
 32 37  1  0
 37 38  1  0
 38 39  1  0
 38 40  1  0
 37 41  2  0
 41 42  1  0
  7 43  1  0
 43 44  1  0
 43 45  2  0
 45 46  1  0
 45  2  1  0
 41  8  1  0
 28  9  1  0
M  CHG  1  41   1
M  END
>  <score>  (143) 
5.78956

$$$$

     RDKit          3D

 50 53  0  0  0  0  0  0  0  0999 V2000
   16.1718   -8.5551   -1.7396 H   0  0  0  0  0  0  0  0  0  0  0  0
   15.9126   -7.5211   -1.5372 C   0  0  0  0  0  0  0  0  0  0  0  0
   16.7944   -6.7020   -0.8279 C   0  0  0  0  0  0  0  0  0  0  0  0
   17.7429   -7.0945   -0.4809 H   0  0  0  0  0  0  0  0  0  0  0  0
   16.4527   -5.3754   -0.5490 C   0  0  0  0  0  0  0  0  0  0  0  0
   17.1349   -4.7461    0.0178 H   0  0  0  0  0  0  0  0  0  0  0  0
   15.2175   -4.8561   -0.9678 C   0  0  0  0  0  0  0  0  0  0  0  0
   14.8085   -3.4312   -0.6166 C   0  0  0  0  0  0  0  0  0  0  0  0
   15.2531   -2.3929   -1.6368 C   0  0  0  0  0  0  0  0  0  0  0  0
   15.9728   -2.6957   -2.8042 C   0  0  0  0  0  0  0  0  0  0  0  0
   16.2883   -3.7166   -2.9932 H   0  0  0  0  0  0  0  0  0  0  0  0
   16.2661   -1.6980   -3.7507 C   0  0  0  0  0  0  0  0  0  0  0  0
   16.7869   -1.9398   -4.6745 H   0  0  0  0  0  0  0  0  0  0  0  0
   15.8668   -0.3765   -3.5234 C   0  0  0  0  0  0  0  0  0  0  0  0
   16.1041    0.3811   -4.2692 H   0  0  0  0  0  0  0  0  0  0  0  0
   15.1374   -0.0594   -2.3665 C   0  0  0  0  0  0  0  0  0  0  0  0
   14.6605    1.2979   -2.0937 C   0  0  0  0  0  0  0  0  0  0  0  0
   13.4703    1.4689   -1.8414 O   0  0  0  0  0  0  0  0  0  0  0  0
   15.5478    2.3637   -2.0185 N   0  0  0  0  0  0  0  0  0  0  0  0
   16.9927    2.2201   -2.1066 C   0  0  0  0  0  0  0  0  0  0  0  0
   17.3303    1.7507   -3.0368 H   0  0  0  0  0  0  0  0  0  0  0  0
   17.3676    1.6391   -1.2526 H   0  0  0  0  0  0  0  0  0  0  0  0
   17.4431    3.6743   -2.0290 C   0  0  0  0  0  0  0  0  0  0  0  0
   18.4661    3.7706   -1.6682 H   0  0  0  0  0  0  0  0  0  0  0  0
   17.3669    4.1516   -3.0145 H   0  0  0  0  0  0  0  0  0  0  0  0
   16.4440    4.2985   -1.0634 C   0  0  0  0  0  0  0  0  0  0  0  0
   16.3423    5.3804   -1.1691 H   0  0  0  0  0  0  0  0  0  0  0  0
   16.7348    4.0645   -0.0329 H   0  0  0  0  0  0  0  0  0  0  0  0
   15.1374    3.6248   -1.4310 C   0  0  0  0  0  0  0  0  0  0  0  0
   14.5035    3.4667   -0.5537 H   0  0  0  0  0  0  0  0  0  0  0  0
   14.5973    4.2268   -2.1657 H   0  0  0  0  0  0  0  0  0  0  0  0
   14.8362   -1.0700   -1.4450 C   0  0  0  0  0  0  0  0  0  0  0  0
   14.2540   -0.8284   -0.5596 H   0  0  0  0  0  0  0  0  0  0  0  0
   13.2875   -3.2751   -0.4023 C   0  0  0  0  0  0  0  0  0  0  0  0
   12.3942   -3.4812   -1.2232 O   0  0  0  0  0  0  0  0  0  0  0  0
   13.0435   -2.7822    0.8622 N   0  0  0  0  0  0  0  0  0  0  0  0
   11.7540   -2.3067    1.3684 C   0  0  0  0  0  0  0  0  0  0  0  0
   11.4655   -2.8489    2.2750 H   0  0  0  0  0  0  0  0  0  0  0  0
   11.7967   -1.2368    1.6002 H   0  0  0  0  0  0  0  0  0  0  0  0
   10.9651   -2.4567    0.6223 H   0  0  0  0  0  0  0  0  0  0  0  0
   14.2687   -2.6430    1.4767 C   0  0  0  0  0  0  0  0  0  0  0  0
   14.4727   -2.1448    2.7262 N   0  0  0  0  0  0  0  0  0  0  0  0
   15.3959   -2.2767    3.1358 H   0  0  0  0  0  0  0  0  0  0  0  0
   13.6649   -2.0636    3.3397 H   0  0  0  0  0  0  0  0  0  0  0  0
   15.2527   -3.0377    0.7362 N   0  0  0  0  0  4  0  0  0  0  0  0
   16.2323   -3.0056    1.0253 H   0  0  0  0  0  0  0  0  0  0  0  0
   14.3521   -5.6772   -1.7122 C   0  0  0  0  0  0  0  0  0  0  0  0
   13.3975   -5.2880   -2.0574 H   0  0  0  0  0  0  0  0  0  0  0  0
   14.6968   -7.0034   -1.9881 C   0  0  0  0  0  0  0  0  0  0  0  0
   14.0125   -7.6320   -2.5455 H   0  0  0  0  0  0  0  0  0  0  0  0
  1  2  1  0
  2  3  2  0
  3  4  1  0
  3  5  1  0
  5  6  1  0
  5  7  2  0
  7  8  1  0
  8  9  1  0
  9 10  2  0
 10 11  1  0
 10 12  1  0
 12 13  1  0
 12 14  2  0
 14 15  1  0
 14 16  1  0
 16 17  1  0
 17 18  2  0
 17 19  1  0
 19 20  1  0
 20 21  1  0
 20 22  1  0
 20 23  1  0
 23 24  1  0
 23 25  1  0
 23 26  1  0
 26 27  1  0
 26 28  1  0
 26 29  1  0
 29 30  1  0
 29 31  1  0
 16 32  2  0
 32 33  1  0
  8 34  1  0
 34 35  2  0
 34 36  1  0
 36 37  1  0
 37 38  1  0
 37 39  1  0
 37 40  1  0
 36 41  1  0
 41 42  1  0
 42 43  1  0
 42 44  1  0
 41 45  2  0
 45 46  1  0
  7 47  1  0
 47 48  1  0
 47 49  2  0
 49 50  1  0
 49  2  1  0
 45  8  1  0
 32  9  1  0
 29 19  1  0
M  CHG  1  45   1
M  END
>  <score>  (144) 
5.78953

$$$$

     RDKit          3D

 44 47  0  0  0  0  0  0  0  0999 V2000
   16.0947   -8.4364   -1.6331 H   0  0  0  0  0  0  0  0  0  0  0  0
   15.8573   -7.3866   -1.4894 C   0  0  0  0  0  0  0  0  0  0  0  0
   16.7510   -6.5567   -0.8040 C   0  0  0  0  0  0  0  0  0  0  0  0
   17.6833   -6.9519   -0.4114 H   0  0  0  0  0  0  0  0  0  0  0  0
   16.4311   -5.2133   -0.5944 C   0  0  0  0  0  0  0  0  0  0  0  0
   17.1140   -4.5666   -0.0497 H   0  0  0  0  0  0  0  0  0  0  0  0
   15.2108   -4.6910   -1.0469 C   0  0  0  0  0  0  0  0  0  0  0  0
   14.8382   -3.2531   -0.7516 C   0  0  0  0  0  0  0  0  0  0  0  0
   15.4010   -2.2680   -1.7648 C   0  0  0  0  0  0  0  0  0  0  0  0
   15.9426   -2.6650   -2.9969 C   0  0  0  0  0  0  0  0  0  0  0  0
   15.9921   -3.7218   -3.2375 H   0  0  0  0  0  0  0  0  0  0  0  0
   16.4197   -1.7131   -3.9116 C   0  0  0  0  0  0  0  0  0  0  0  0
   16.8351   -2.0261   -4.8650 H   0  0  0  0  0  0  0  0  0  0  0  0
   16.3591   -0.3486   -3.6056 C   0  0  0  0  0  0  0  0  0  0  0  0
   16.7344    0.3777   -4.3261 H   0  0  0  0  0  0  0  0  0  0  0  0
   15.7962    0.0677   -2.3855 C   0  0  0  0  0  0  0  0  0  0  0  0
   15.6359    1.4804   -2.0277 C   0  0  0  0  0  0  0  0  0  0  0  0
   15.1752    1.8398   -0.8546 N   0  0  0  0  0  0  0  0  0  0  0  0
   15.0921    3.2369   -0.8967 O   0  0  0  0  0  0  0  0  0  0  0  0
   15.5986    3.5649   -2.1122 C   0  0  0  0  0  0  0  0  0  0  0  0
   15.8962    4.9638   -2.5092 C   0  0  0  0  0  0  0  0  0  0  0  0
   15.4994    5.6667   -1.7704 H   0  0  0  0  0  0  0  0  0  0  0  0
   15.4834    5.1830   -3.4951 H   0  0  0  0  0  0  0  0  0  0  0  0
   16.9767    5.0677   -2.5590 H   0  0  0  0  0  0  0  0  0  0  0  0
   15.9189    2.5453   -2.8572 N   0  0  0  0  0  0  0  0  0  0  0  0
   15.3276   -0.9021   -1.4867 C   0  0  0  0  0  0  0  0  0  0  0  0
   14.8817   -0.5834   -0.5471 H   0  0  0  0  0  0  0  0  0  0  0  0
   13.3172   -3.0515   -0.5828 C   0  0  0  0  0  0  0  0  0  0  0  0
   12.4491   -3.1857   -1.4439 O   0  0  0  0  0  0  0  0  0  0  0  0
   13.0453   -2.6877    0.7233 N   0  0  0  0  0  0  0  0  0  0  0  0
   11.7433   -2.3155    1.2826 C   0  0  0  0  0  0  0  0  0  0  0  0
   11.7357   -1.2569    1.5639 H   0  0  0  0  0  0  0  0  0  0  0  0
   11.5098   -2.9085    2.1745 H   0  0  0  0  0  0  0  0  0  0  0  0
   10.9382   -2.4774    0.5573 H   0  0  0  0  0  0  0  0  0  0  0  0
   14.2550   -2.6136    1.3785 C   0  0  0  0  0  0  0  0  0  0  0  0
   14.4332   -2.2673    2.6841 N   0  0  0  0  0  0  0  0  0  0  0  0
   15.3725   -2.2993    3.0790 H   0  0  0  0  0  0  0  0  0  0  0  0
   13.6206   -2.1127    3.2777 H   0  0  0  0  0  0  0  0  0  0  0  0
   15.2551   -2.9120    0.6229 N   0  0  0  0  0  4  0  0  0  0  0  0
   16.2151   -3.0020    0.9622 H   0  0  0  0  0  0  0  0  0  0  0  0
   14.3283   -5.5248   -1.7497 C   0  0  0  0  0  0  0  0  0  0  0  0
   13.3771   -5.1333   -2.0998 H   0  0  0  0  0  0  0  0  0  0  0  0
   14.6502   -6.8674   -1.9708 C   0  0  0  0  0  0  0  0  0  0  0  0
   13.9516   -7.5145   -2.4914 H   0  0  0  0  0  0  0  0  0  0  0  0
  1  2  1  0
  2  3  2  0
  3  4  1  0
  3  5  1  0
  5  6  1  0
  5  7  2  0
  7  8  1  0
  8  9  1  0
  9 10  2  0
 10 11  1  0
 10 12  1  0
 12 13  1  0
 12 14  2  0
 14 15  1  0
 14 16  1  0
 16 17  1  0
 17 18  2  0
 18 19  1  0
 19 20  1  0
 20 21  1  0
 21 22  1  0
 21 23  1  0
 21 24  1  0
 20 25  2  0
 16 26  2  0
 26 27  1  0
  8 28  1  0
 28 29  2  0
 28 30  1  0
 30 31  1  0
 31 32  1  0
 31 33  1  0
 31 34  1  0
 30 35  1  0
 35 36  1  0
 36 37  1  0
 36 38  1  0
 35 39  2  0
 39 40  1  0
  7 41  1  0
 41 42  1  0
 41 43  2  0
 43 44  1  0
 43  2  1  0
 39  8  1  0
 26  9  1  0
 25 17  1  0
M  CHG  1  39   1
M  END
>  <score>  (145) 
5.7884

$$$$

     RDKit          3D

 48 51  0  0  0  0  0  0  0  0999 V2000
   16.0983   -8.4583   -1.6173 H   0  0  0  0  0  0  0  0  0  0  0  0
   15.8590   -7.4068   -1.4858 C   0  0  0  0  0  0  0  0  0  0  0  0
   16.7418   -6.5637   -0.8049 C   0  0  0  0  0  0  0  0  0  0  0  0
   17.6725   -6.9589   -0.4093 H   0  0  0  0  0  0  0  0  0  0  0  0
   16.4130   -5.2171   -0.6092 C   0  0  0  0  0  0  0  0  0  0  0  0
   17.0814   -4.5670   -0.0524 H   0  0  0  0  0  0  0  0  0  0  0  0
   15.1978   -4.6908   -1.0737 C   0  0  0  0  0  0  0  0  0  0  0  0
   14.8333   -3.2365   -0.7618 C   0  0  0  0  0  0  0  0  0  0  0  0
   15.3824   -2.2183   -1.7629 C   0  0  0  0  0  0  0  0  0  0  0  0
   15.9336   -2.6138   -2.9936 C   0  0  0  0  0  0  0  0  0  0  0  0
   15.9854   -3.6739   -3.2254 H   0  0  0  0  0  0  0  0  0  0  0  0
   16.4131   -1.6626   -3.9077 C   0  0  0  0  0  0  0  0  0  0  0  0
   16.8422   -1.9838   -4.8544 H   0  0  0  0  0  0  0  0  0  0  0  0
   16.3359   -0.2975   -3.5928 C   0  0  0  0  0  0  0  0  0  0  0  0
   16.7071    0.4675   -4.2653 H   0  0  0  0  0  0  0  0  0  0  0  0
   15.7724    0.1273   -2.3893 C   0  0  0  0  0  0  0  0  0  0  0  0
   15.6839    1.4935   -2.0924 N   0  0  0  0  0  0  0  0  0  0  0  0
   16.3123    2.5225   -2.9253 C   0  0  0  0  0  0  0  0  0  0  0  0
   17.3721    2.3030   -3.0845 H   0  0  0  0  0  0  0  0  0  0  0  0
   15.8064    2.5778   -3.8948 H   0  0  0  0  0  0  0  0  0  0  0  0
   16.1358    3.8120   -2.1254 C   0  0  0  0  0  0  0  0  0  0  0  0
   15.8727    4.6547   -2.7753 H   0  0  0  0  0  0  0  0  0  0  0  0
   17.0687    4.0527   -1.6019 H   0  0  0  0  0  0  0  0  0  0  0  0
   15.0258    3.5260   -1.1070 C   0  0  0  0  0  0  0  0  0  0  0  0
   15.2117    4.0489   -0.1622 H   0  0  0  0  0  0  0  0  0  0  0  0
   14.0627    3.8562   -1.5139 H   0  0  0  0  0  0  0  0  0  0  0  0
   15.0015    2.0111   -0.8998 C   0  0  0  0  0  0  0  0  0  0  0  0
   15.5477    1.7285    0.0085 H   0  0  0  0  0  0  0  0  0  0  0  0
   13.9708    1.6389   -0.8261 H   0  0  0  0  0  0  0  0  0  0  0  0
   15.2969   -0.8344   -1.4927 C   0  0  0  0  0  0  0  0  0  0  0  0
   14.8667   -0.4706   -0.5663 H   0  0  0  0  0  0  0  0  0  0  0  0
   13.3147   -3.0285   -0.5958 C   0  0  0  0  0  0  0  0  0  0  0  0
   12.4577   -3.1267   -1.4703 O   0  0  0  0  0  0  0  0  0  0  0  0
   13.0318   -2.6785    0.7108 N   0  0  0  0  0  0  0  0  0  0  0  0
   11.7275   -2.3135    1.2716 C   0  0  0  0  0  0  0  0  0  0  0  0
   10.9237   -2.4776    0.5435 H   0  0  0  0  0  0  0  0  0  0  0  0
   11.5086   -2.9189    2.1600 H   0  0  0  0  0  0  0  0  0  0  0  0
   11.7155   -1.2545    1.5567 H   0  0  0  0  0  0  0  0  0  0  0  0
   14.2407   -2.6231    1.3710 C   0  0  0  0  0  0  0  0  0  0  0  0
   14.4131   -2.2980    2.6779 N   0  0  0  0  0  0  0  0  0  0  0  0
   15.3483   -2.3312    3.0776 H   0  0  0  0  0  0  0  0  0  0  0  0
   13.5998   -2.1226    3.2625 H   0  0  0  0  0  0  0  0  0  0  0  0
   15.2508   -2.9154    0.6220 N   0  0  0  0  0  4  0  0  0  0  0  0
   16.2166   -2.9699    0.9588 H   0  0  0  0  0  0  0  0  0  0  0  0
   14.3203   -5.5499   -1.7653 C   0  0  0  0  0  0  0  0  0  0  0  0
   13.3637   -5.1713   -2.1132 H   0  0  0  0  0  0  0  0  0  0  0  0
   14.6493   -6.8999   -1.9701 C   0  0  0  0  0  0  0  0  0  0  0  0
   13.9590   -7.5627   -2.4850 H   0  0  0  0  0  0  0  0  0  0  0  0
  1  2  1  0
  2  3  2  0
  3  4  1  0
  3  5  1  0
  5  6  1  0
  5  7  2  0
  7  8  1  0
  8  9  1  0
  9 10  2  0
 10 11  1  0
 10 12  1  0
 12 13  1  0
 12 14  2  0
 14 15  1  0
 14 16  1  0
 16 17  1  0
 17 18  1  0
 18 19  1  0
 18 20  1  0
 18 21  1  0
 21 22  1  0
 21 23  1  0
 21 24  1  0
 24 25  1  0
 24 26  1  0
 24 27  1  0
 27 28  1  0
 27 29  1  0
 16 30  2  0
 30 31  1  0
  8 32  1  0
 32 33  2  0
 32 34  1  0
 34 35  1  0
 35 36  1  0
 35 37  1  0
 35 38  1  0
 34 39  1  0
 39 40  1  0
 40 41  1  0
 40 42  1  0
 39 43  2  0
 43 44  1  0
  7 45  1  0
 45 46  1  0
 45 47  2  0
 47 48  1  0
 47  2  1  0
 43  8  1  0
 30  9  1  0
 27 17  1  0
M  CHG  1  43   1
M  END
>  <score>  (146) 
5.78826

$$$$

     RDKit          3D

 52 55  0  0  0  0  0  0  0  0999 V2000
   16.0509   -8.4222   -1.8273 H   0  0  0  0  0  0  0  0  0  0  0  0
   15.8308   -7.3770   -1.6319 C   0  0  0  0  0  0  0  0  0  0  0  0
   16.7689   -6.5822   -0.9557 C   0  0  0  0  0  0  0  0  0  0  0  0
   17.7189   -6.9998   -0.6289 H   0  0  0  0  0  0  0  0  0  0  0  0
   16.4760   -5.2394   -0.6825 C   0  0  0  0  0  0  0  0  0  0  0  0
   17.1947   -4.6405   -0.1289 H   0  0  0  0  0  0  0  0  0  0  0  0
   15.2516   -4.6746   -1.0844 C   0  0  0  0  0  0  0  0  0  0  0  0
   14.8762   -3.2336   -0.7479 C   0  0  0  0  0  0  0  0  0  0  0  0
   15.3506   -2.2065   -1.7767 C   0  0  0  0  0  0  0  0  0  0  0  0
   16.0153   -2.5702   -2.9611 C   0  0  0  0  0  0  0  0  0  0  0  0
   16.2420   -3.6137   -3.1571 H   0  0  0  0  0  0  0  0  0  0  0  0
   16.3770   -1.6000   -3.9117 C   0  0  0  0  0  0  0  0  0  0  0  0
   16.8906   -1.8907   -4.8247 H   0  0  0  0  0  0  0  0  0  0  0  0
   16.0623   -0.2514   -3.6951 C   0  0  0  0  0  0  0  0  0  0  0  0
   16.3384    0.5202   -4.4074 H   0  0  0  0  0  0  0  0  0  0  0  0
   15.4200    0.1311   -2.5236 C   0  0  0  0  0  0  0  0  0  0  0  0
   15.0972    1.4709   -2.3210 N   0  0  0  0  0  0  0  0  0  0  0  0
   14.7416    2.0109   -3.1039 H   0  0  0  0  0  0  0  0  0  0  0  0
   15.3069    2.1511   -1.1279 C   0  0  0  0  0  0  0  0  0  0  0  0
   16.2846    1.7220   -0.2442 C   0  0  0  0  0  0  0  0  0  0  0  0
   16.8007    0.8058   -0.4946 H   0  0  0  0  0  0  0  0  0  0  0  0
   16.5893    2.4578    0.9031 C   0  0  0  0  0  0  0  0  0  0  0  0
   17.3869    2.1183    1.5645 H   0  0  0  0  0  0  0  0  0  0  0  0
   15.8327    3.5968    1.2102 C   0  0  0  0  0  0  0  0  0  0  0  0
   16.0357    4.1608    2.1176 H   0  0  0  0  0  0  0  0  0  0  0  0
   14.8030    4.0037    0.3523 C   0  0  0  0  0  0  0  0  0  0  0  0
   14.1972    4.8660    0.6280 H   0  0  0  0  0  0  0  0  0  0  0  0
   14.5743    3.3028   -0.8527 C   0  0  0  0  0  0  0  0  0  0  0  0
   13.5865    3.7230   -1.8299 C   0  0  0  0  0  0  0  0  0  0  0  0
   13.3671    3.1140   -2.8619 O   0  0  0  0  0  0  0  0  0  0  0  0
   12.9278    4.9123   -1.7380 N   0  0  0  0  0  0  0  0  0  0  0  0
   13.2686    5.5835   -1.0608 H   0  0  0  0  0  0  0  0  0  0  0  0
   12.5354    5.2381   -2.6155 H   0  0  0  0  0  0  0  0  0  0  0  0
   15.0739   -0.8399   -1.5792 C   0  0  0  0  0  0  0  0  0  0  0  0
   14.5471   -0.5160   -0.6910 H   0  0  0  0  0  0  0  0  0  0  0  0
   13.3533   -3.0748   -0.5182 C   0  0  0  0  0  0  0  0  0  0  0  0
   12.4442   -3.2497   -1.3247 O   0  0  0  0  0  0  0  0  0  0  0  0
   13.1082   -2.7016    0.7898 N   0  0  0  0  0  0  0  0  0  0  0  0
   11.8331   -2.2136    1.3319 C   0  0  0  0  0  0  0  0  0  0  0  0
   11.6947   -1.1509    1.0900 H   0  0  0  0  0  0  0  0  0  0  0  0
   11.8002   -2.3146    2.4245 H   0  0  0  0  0  0  0  0  0  0  0  0
   10.9843   -2.7835    0.9244 H   0  0  0  0  0  0  0  0  0  0  0  0
   14.3364   -2.5685    1.3873 C   0  0  0  0  0  0  0  0  0  0  0  0
   14.5215   -2.1075    2.6476 N   0  0  0  0  0  0  0  0  0  0  0  0
   15.4175   -2.2923    3.0989 H   0  0  0  0  0  0  0  0  0  0  0  0
   13.6860   -1.9758    3.2127 H   0  0  0  0  0  0  0  0  0  0  0  0
   15.3202   -2.8803    0.6154 N   0  0  0  0  0  4  0  0  0  0  0  0
   16.2929   -2.8377    0.9176 H   0  0  0  0  0  0  0  0  0  0  0  0
   14.3293   -5.4845   -1.7681 C   0  0  0  0  0  0  0  0  0  0  0  0
   13.3741   -5.0664   -2.0680 H   0  0  0  0  0  0  0  0  0  0  0  0
   14.6077   -6.8282   -2.0380 C   0  0  0  0  0  0  0  0  0  0  0  0
   13.8683   -7.4347   -2.5591 H   0  0  0  0  0  0  0  0  0  0  0  0
  1  2  1  0
  2  3  2  0
  3  4  1  0
  3  5  1  0
  5  6  1  0
  5  7  2  0
  7  8  1  0
  8  9  1  0
  9 10  2  0
 10 11  1  0
 10 12  1  0
 12 13  1  0
 12 14  2  0
 14 15  1  0
 14 16  1  0
 16 17  1  0
 17 18  1  0
 17 19  1  0
 19 20  2  0
 20 21  1  0
 20 22  1  0
 22 23  1  0
 22 24  2  0
 24 25  1  0
 24 26  1  0
 26 27  1  0
 26 28  2  0
 28 29  1  0
 29 30  2  0
 29 31  1  0
 31 32  1  0
 31 33  1  0
 16 34  2  0
 34 35  1  0
  8 36  1  0
 36 37  2  0
 36 38  1  0
 38 39  1  0
 39 40  1  0
 39 41  1  0
 39 42  1  0
 38 43  1  0
 43 44  1  0
 44 45  1  0
 44 46  1  0
 43 47  2  0
 47 48  1  0
  7 49  1  0
 49 50  1  0
 49 51  2  0
 51 52  1  0
 51  2  1  0
 47  8  1  0
 34  9  1  0
 28 19  1  0
M  CHG  1  47   1
M  END
>  <score>  (147) 
5.78644

$$$$

     RDKit          3D

 50 53  0  0  0  0  0  0  0  0999 V2000
   16.0872   -8.4115   -1.6515 H   0  0  0  0  0  0  0  0  0  0  0  0
   15.8566   -7.3627   -1.4928 C   0  0  0  0  0  0  0  0  0  0  0  0
   16.7566   -6.5430   -0.8041 C   0  0  0  0  0  0  0  0  0  0  0  0
   17.6884   -6.9464   -0.4204 H   0  0  0  0  0  0  0  0  0  0  0  0
   16.4494   -5.1981   -0.5873 C   0  0  0  0  0  0  0  0  0  0  0  0
   17.1447   -4.5636   -0.0432 H   0  0  0  0  0  0  0  0  0  0  0  0
   15.2304   -4.6664   -1.0331 C   0  0  0  0  0  0  0  0  0  0  0  0
   14.8616   -3.2291   -0.7263 C   0  0  0  0  0  0  0  0  0  0  0  0
   15.4220   -2.2341   -1.7347 C   0  0  0  0  0  0  0  0  0  0  0  0
   15.9374   -2.6450   -2.9739 C   0  0  0  0  0  0  0  0  0  0  0  0
   15.9768   -3.7052   -3.2066 H   0  0  0  0  0  0  0  0  0  0  0  0
   16.3929   -1.7094   -3.9106 C   0  0  0  0  0  0  0  0  0  0  0  0
   16.7932   -2.0393   -4.8640 H   0  0  0  0  0  0  0  0  0  0  0  0
   16.3196   -0.3443   -3.6216 C   0  0  0  0  0  0  0  0  0  0  0  0
   16.6741    0.3827   -4.3475 H   0  0  0  0  0  0  0  0  0  0  0  0
   15.8018    0.0909   -2.3961 C   0  0  0  0  0  0  0  0  0  0  0  0
   15.6806    1.5194   -2.1015 C   0  0  0  0  0  0  0  0  0  0  0  0
   15.3911    2.4255   -3.1287 C   0  0  0  0  0  0  0  0  0  0  0  0
   15.2611    2.0768   -4.1512 H   0  0  0  0  0  0  0  0  0  0  0  0
   15.2691    3.7866   -2.8424 C   0  0  0  0  0  0  0  0  0  0  0  0
   15.0430    4.5029   -3.6212 H   0  0  0  0  0  0  0  0  0  0  0  0
   15.4546    4.2570   -1.5443 C   0  0  0  0  0  0  0  0  0  0  0  0
   15.3778    5.3229   -1.3526 H   0  0  0  0  0  0  0  0  0  0  0  0
   15.7353    3.3716   -0.4955 C   0  0  0  0  0  0  0  0  0  0  0  0
   15.8952    3.8836    0.8760 C   0  0  0  0  0  0  0  0  0  0  0  0
   16.1031    3.1614    1.8226 O   0  0  0  0  0  0  0  0  0  0  0  0
   15.8470    5.2057    1.2154 N   0  0  0  0  0  0  0  0  0  0  0  0
   16.1160    5.4271    2.1740 H   0  0  0  0  0  0  0  0  0  0  0  0
   16.0116    5.8771    0.4796 H   0  0  0  0  0  0  0  0  0  0  0  0
   15.8398    1.9954   -0.7915 C   0  0  0  0  0  0  0  0  0  0  0  0
   16.0563    1.2623   -0.0162 H   0  0  0  0  0  0  0  0  0  0  0  0
   15.3673   -0.8573   -1.4623 C   0  0  0  0  0  0  0  0  0  0  0  0
   14.9571   -0.5052   -0.5217 H   0  0  0  0  0  0  0  0  0  0  0  0
   13.3380   -3.0460   -0.5603 C   0  0  0  0  0  0  0  0  0  0  0  0
   12.4765   -3.2218   -1.4165 O   0  0  0  0  0  0  0  0  0  0  0  0
   13.0591   -2.6770    0.7400 N   0  0  0  0  0  0  0  0  0  0  0  0
   11.7557   -2.3110    1.2920 C   0  0  0  0  0  0  0  0  0  0  0  0
   11.5301   -2.9051    2.1851 H   0  0  0  0  0  0  0  0  0  0  0  0
   11.7497   -1.2513    1.5687 H   0  0  0  0  0  0  0  0  0  0  0  0
   10.9557   -2.4803    0.5606 H   0  0  0  0  0  0  0  0  0  0  0  0
   14.2680   -2.5952    1.4009 C   0  0  0  0  0  0  0  0  0  0  0  0
   14.4490   -2.2471    2.7006 N   0  0  0  0  0  0  0  0  0  0  0  0
   15.3916   -2.2650    3.0926 H   0  0  0  0  0  0  0  0  0  0  0  0
   13.6425   -2.0950    3.2992 H   0  0  0  0  0  0  0  0  0  0  0  0
   15.2715   -2.8992    0.6488 N   0  0  0  0  0  4  0  0  0  0  0  0
   16.2251   -3.0154    0.9964 H   0  0  0  0  0  0  0  0  0  0  0  0
   14.3399   -5.4917   -1.7363 C   0  0  0  0  0  0  0  0  0  0  0  0
   13.3930   -5.0884   -2.0858 H   0  0  0  0  0  0  0  0  0  0  0  0
   14.6509   -6.8343   -1.9652 C   0  0  0  0  0  0  0  0  0  0  0  0
   13.9459   -7.4631   -2.4991 H   0  0  0  0  0  0  0  0  0  0  0  0
  1  2  1  0
  2  3  2  0
  3  4  1  0
  3  5  1  0
  5  6  1  0
  5  7  2  0
  7  8  1  0
  8  9  1  0
  9 10  2  0
 10 11  1  0
 10 12  1  0
 12 13  1  0
 12 14  2  0
 14 15  1  0
 14 16  1  0
 16 17  1  0
 17 18  2  0
 18 19  1  0
 18 20  1  0
 20 21  1  0
 20 22  2  0
 22 23  1  0
 22 24  1  0
 24 25  1  0
 25 26  2  0
 25 27  1  0
 27 28  1  0
 27 29  1  0
 24 30  2  0
 30 31  1  0
 16 32  2  0
 32 33  1  0
  8 34  1  0
 34 35  2  0
 34 36  1  0
 36 37  1  0
 37 38  1  0
 37 39  1  0
 37 40  1  0
 36 41  1  0
 41 42  1  0
 42 43  1  0
 42 44  1  0
 41 45  2  0
 45 46  1  0
  7 47  1  0
 47 48  1  0
 47 49  2  0
 49 50  1  0
 49  2  1  0
 45  8  1  0
 32  9  1  0
 30 17  1  0
M  CHG  1  45   1
M  END
>  <score>  (148) 
5.78449

$$$$

     RDKit          3D

 45 47  0  0  0  0  0  0  0  0999 V2000
   16.0992   -8.3831   -1.6698 H   0  0  0  0  0  0  0  0  0  0  0  0
   15.8734   -7.3341   -1.5048 C   0  0  0  0  0  0  0  0  0  0  0  0
   16.7765   -6.5172   -0.8164 C   0  0  0  0  0  0  0  0  0  0  0  0
   17.7124   -6.9258   -0.4475 H   0  0  0  0  0  0  0  0  0  0  0  0
   16.4682   -5.1720   -0.5810 C   0  0  0  0  0  0  0  0  0  0  0  0
   17.1683   -4.5451   -0.0354 H   0  0  0  0  0  0  0  0  0  0  0  0
   15.2445   -4.6362   -1.0161 C   0  0  0  0  0  0  0  0  0  0  0  0
   14.8423   -3.2068   -0.6854 C   0  0  0  0  0  0  0  0  0  0  0  0
   15.2988   -2.1789   -1.7135 C   0  0  0  0  0  0  0  0  0  0  0  0
   16.0083   -2.5294   -2.8739 C   0  0  0  0  0  0  0  0  0  0  0  0
   16.2582   -3.5727   -3.0615 H   0  0  0  0  0  0  0  0  0  0  0  0
   16.3581   -1.5477   -3.8095 C   0  0  0  0  0  0  0  0  0  0  0  0
   16.9151   -1.8152   -4.7018 H   0  0  0  0  0  0  0  0  0  0  0  0
   15.9575   -0.2223   -3.6295 C   0  0  0  0  0  0  0  0  0  0  0  0
   16.2447    0.5054   -4.3863 H   0  0  0  0  0  0  0  0  0  0  0  0
   15.1892    0.1273   -2.5090 C   0  0  0  0  0  0  0  0  0  0  0  0
   14.5545    1.8185   -2.3105 S   0  0  0  0  0  0  0  0  0  0  0  0
   13.2422    1.8165   -1.6331 O   0  0  0  0  0  0  0  0  0  0  0  0
   14.4976    2.5123   -3.6085 O   0  0  0  0  0  0  0  0  0  0  0  0
   15.8150    2.5493   -1.2385 C   0  0  0  0  0  0  0  0  0  0  0  0
   15.8167    1.9958   -0.2985 H   0  0  0  0  0  0  0  0  0  0  0  0
   15.5391    3.5803   -1.0344 H   0  0  0  0  0  0  0  0  0  0  0  0
   17.2069    2.5064   -1.8653 C   0  0  0  0  0  0  0  0  0  0  0  0
   17.2329    3.1057   -2.7851 H   0  0  0  0  0  0  0  0  0  0  0  0
   17.5119    1.4716   -2.0722 H   0  0  0  0  0  0  0  0  0  0  0  0
   17.9202    2.9373   -1.1632 H   0  0  0  0  0  0  0  0  0  0  0  0
   14.9007   -0.8444   -1.5425 C   0  0  0  0  0  0  0  0  0  0  0  0
   14.3357   -0.5968   -0.6456 H   0  0  0  0  0  0  0  0  0  0  0  0
   13.3171   -3.0853   -0.4751 C   0  0  0  0  0  0  0  0  0  0  0  0
   12.4326   -3.2868   -1.3046 O   0  0  0  0  0  0  0  0  0  0  0  0
   13.0643   -2.6568    0.8103 N   0  0  0  0  0  0  0  0  0  0  0  0
   11.7559   -2.2927    1.3498 C   0  0  0  0  0  0  0  0  0  0  0  0
   11.7358   -1.2298    1.6137 H   0  0  0  0  0  0  0  0  0  0  0  0
   11.5259   -2.8840    2.2429 H   0  0  0  0  0  0  0  0  0  0  0  0
   10.9679   -2.4739    0.6084 H   0  0  0  0  0  0  0  0  0  0  0  0
   14.2814   -2.5408    1.4442 C   0  0  0  0  0  0  0  0  0  0  0  0
   14.4741   -2.1804    2.7427 N   0  0  0  0  0  0  0  0  0  0  0  0
   13.6646   -2.1072    3.3578 H   0  0  0  0  0  0  0  0  0  0  0  0
   15.4083   -2.2602    3.1371 H   0  0  0  0  0  0  0  0  0  0  0  0
   15.2800   -2.8367    0.6747 N   0  0  0  0  0  4  0  0  0  0  0  0
   16.2415   -2.9318    1.0060 H   0  0  0  0  0  0  0  0  0  0  0  0
   14.3649   -5.4574   -1.7397 C   0  0  0  0  0  0  0  0  0  0  0  0
   13.4229   -5.0529   -2.0997 H   0  0  0  0  0  0  0  0  0  0  0  0
   14.6712   -6.7995   -1.9776 C   0  0  0  0  0  0  0  0  0  0  0  0
   13.9629   -7.4219   -2.5144 H   0  0  0  0  0  0  0  0  0  0  0  0
  1  2  1  0
  2  3  2  0
  3  4  1  0
  3  5  1  0
  5  6  1  0
  5  7  2  0
  7  8  1  0
  8  9  1  0
  9 10  2  0
 10 11  1  0
 10 12  1  0
 12 13  1  0
 12 14  2  0
 14 15  1  0
 14 16  1  0
 16 17  1  0
 17 18  2  0
 17 19  2  0
 17 20  1  0
 20 21  1  0
 20 22  1  0
 20 23  1  0
 23 24  1  0
 23 25  1  0
 23 26  1  0
 16 27  2  0
 27 28  1  0
  8 29  1  0
 29 30  2  0
 29 31  1  0
 31 32  1  0
 32 33  1  0
 32 34  1  0
 32 35  1  0
 31 36  1  0
 36 37  1  0
 37 38  1  0
 37 39  1  0
 36 40  2  0
 40 41  1  0
  7 42  1  0
 42 43  1  0
 42 44  2  0
 44 45  1  0
 44  2  1  0
 40  8  1  0
 27  9  1  0
M  CHG  1  40   1
M  END
>  <score>  (149) 
5.77703

$$$$

     RDKit          3D

 58 62  0  0  0  0  0  0  0  0999 V2000
   10.4238  -13.4661   -4.8273 H   0  0  0  0  0  0  0  0  0  0  0  0
   10.0609  -12.5208   -4.4267 C   0  0  0  0  0  0  0  0  0  0  0  0
   10.7860  -11.8732   -3.5368 N   0  0  0  0  0  0  0  0  0  0  0  0
   10.3436  -10.6985   -3.0901 C   0  0  0  0  0  0  0  0  0  0  0  0
   11.2495   -9.9792   -2.3282 N   0  0  0  0  0  0  0  0  0  0  0  0
   10.8688   -8.9389   -1.3250 C   0  0  0  0  0  0  0  0  0  0  0  0
    9.8291   -8.6148   -1.4563 H   0  0  0  0  0  0  0  0  0  0  0  0
   10.9519   -9.3642   -0.3163 H   0  0  0  0  0  0  0  0  0  0  0  0
   11.8048   -7.6943   -1.3984 C   0  0  0  0  0  0  0  0  0  0  0  0
   11.6156   -7.1925   -2.3484 H   0  0  0  0  0  0  0  0  0  0  0  0
   11.5505   -7.0053   -0.5826 H   0  0  0  0  0  0  0  0  0  0  0  0
   13.2557   -8.0468   -1.3452 N   0  0  0  0  0  0  0  0  0  0  0  0
   14.2566   -7.0659   -1.1341 C   0  0  0  0  0  0  0  0  0  0  0  0
   15.6090   -7.4375   -1.0598 C   0  0  0  0  0  0  0  0  0  0  0  0
   15.8666   -8.4855   -1.1489 H   0  0  0  0  0  0  0  0  0  0  0  0
   16.6177   -6.4835   -0.8631 C   0  0  0  0  0  0  0  0  0  0  0  0
   17.6650   -6.7733   -0.8006 H   0  0  0  0  0  0  0  0  0  0  0  0
   16.2793   -5.1397   -0.7260 C   0  0  0  0  0  0  0  0  0  0  0  0
   17.0582   -4.4012   -0.5565 H   0  0  0  0  0  0  0  0  0  0  0  0
   14.9468   -4.7216   -0.7667 C   0  0  0  0  0  0  0  0  0  0  0  0
   14.6630   -3.2400   -0.5240 C   0  0  0  0  0  0  0  0  0  0  0  0
   15.2448   -2.3011   -1.5871 C   0  0  0  0  0  0  0  0  0  0  0  0
   15.7727   -2.7954   -2.7926 C   0  0  0  0  0  0  0  0  0  0  0  0
   15.7562   -3.8635   -2.9837 H   0  0  0  0  0  0  0  0  0  0  0  0
   16.3325   -1.9326   -3.7442 C   0  0  0  0  0  0  0  0  0  0  0  0
   16.7447   -2.3328   -4.6630 H   0  0  0  0  0  0  0  0  0  0  0  0
   16.3737   -0.5562   -3.5127 C   0  0  0  0  0  0  0  0  0  0  0  0
   16.8284    0.1056   -4.2462 H   0  0  0  0  0  0  0  0  0  0  0  0
   15.8274   -0.0412   -2.3347 C   0  0  0  0  0  0  0  0  0  0  0  0
   15.8542    1.0300   -2.1559 H   0  0  0  0  0  0  0  0  0  0  0  0
   15.2602   -0.9044   -1.3853 C   0  0  0  0  0  0  0  0  0  0  0  0
   14.8433   -0.4784   -0.4765 H   0  0  0  0  0  0  0  0  0  0  0  0
   13.1725   -2.9643   -0.2837 C   0  0  0  0  0  0  0  0  0  0  0  0
   12.2537   -3.1245   -1.0850 O   0  0  0  0  0  0  0  0  0  0  0  0
   12.9957   -2.5067    1.0061 N   0  0  0  0  0  0  0  0  0  0  0  0
   11.7398   -2.0823    1.6189 C   0  0  0  0  0  0  0  0  0  0  0  0
   11.5721   -2.6103    2.5644 H   0  0  0  0  0  0  0  0  0  0  0  0
   11.7621   -1.0066    1.8143 H   0  0  0  0  0  0  0  0  0  0  0  0
   10.8896   -2.2901    0.9603 H   0  0  0  0  0  0  0  0  0  0  0  0
   14.2355   -2.4591    1.6008 C   0  0  0  0  0  0  0  0  0  0  0  0
   14.4855   -2.0409    2.8721 N   0  0  0  0  0  0  0  0  0  0  0  0
   13.6960   -1.9339    3.5071 H   0  0  0  0  0  0  0  0  0  0  0  0
   15.4107   -2.2208    3.2569 H   0  0  0  0  0  0  0  0  0  0  0  0
   15.1747   -2.8662    0.8150 N   0  0  0  0  0  4  0  0  0  0  0  0
   16.1565   -2.9340    1.0913 H   0  0  0  0  0  0  0  0  0  0  0  0
   13.9434   -5.7004   -0.9853 C   0  0  0  0  0  0  0  0  0  0  0  0
   12.8998   -5.4187   -1.0400 H   0  0  0  0  0  0  0  0  0  0  0  0
   13.6071   -9.4464   -1.7191 C   0  0  0  0  0  0  0  0  0  0  0  0
   13.5052  -10.1016   -0.8454 H   0  0  0  0  0  0  0  0  0  0  0  0
   14.6399   -9.5175   -2.0829 H   0  0  0  0  0  0  0  0  0  0  0  0
   12.6532   -9.9689   -2.8126 C   0  0  0  0  0  0  0  0  0  0  0  0
   12.7276   -9.3285   -3.6992 H   0  0  0  0  0  0  0  0  0  0  0  0
   12.9682  -10.9744   -3.1095 H   0  0  0  0  0  0  0  0  0  0  0  0
    9.1839  -10.1431   -3.4215 N   0  0  0  0  0  0  0  0  0  0  0  0
    8.4481  -10.7957   -4.3082 C   0  0  0  0  0  0  0  0  0  0  0  0
    7.5143  -10.3544   -4.6476 H   0  0  0  0  0  0  0  0  0  0  0  0
    8.8668  -11.9955   -4.8490 C   0  0  0  0  0  0  0  0  0  0  0  0
    8.2646  -12.5309   -5.5622 H   0  0  0  0  0  0  0  0  0  0  0  0
  1  2  1  0
  2  3  2  0
  3  4  1  0
  4  5  1  0
  5  6  1  0
  6  7  1  0
  6  8  1  0
  6  9  1  0
  9 10  1  0
  9 11  1  0
  9 12  1  0
 12 13  1  0
 13 14  2  0
 14 15  1  0
 14 16  1  0
 16 17  1  0
 16 18  2  0
 18 19  1  0
 18 20  1  0
 20 21  1  0
 21 22  1  0
 22 23  2  0
 23 24  1  0
 23 25  1  0
 25 26  1  0
 25 27  2  0
 27 28  1  0
 27 29  1  0
 29 30  1  0
 29 31  2  0
 31 32  1  0
 21 33  1  0
 33 34  2  0
 33 35  1  0
 35 36  1  0
 36 37  1  0
 36 38  1  0
 36 39  1  0
 35 40  1  0
 40 41  1  0
 41 42  1  0
 41 43  1  0
 40 44  2  0
 44 45  1  0
 20 46  2  0
 46 47  1  0
 12 48  1  0
 48 49  1  0
 48 50  1  0
 48 51  1  0
 51 52  1  0
 51 53  1  0
  4 54  2  0
 54 55  1  0
 55 56  1  0
 55 57  2  0
 57 58  1  0
 57  2  1  0
 51  5  1  0
 46 13  1  0
 44 21  1  0
 31 22  1  0
M  CHG  1  44   1
M  END
>  <score>  (150) 
5.77497

$$$$

     RDKit          3D

 50 53  0  0  0  0  0  0  0  0999 V2000
   16.2143   -8.3912   -1.7093 H   0  0  0  0  0  0  0  0  0  0  0  0
   15.8992   -7.3710   -1.5083 C   0  0  0  0  0  0  0  0  0  0  0  0
   16.7291   -6.5125   -0.7832 C   0  0  0  0  0  0  0  0  0  0  0  0
   17.6902   -6.8603   -0.4185 H   0  0  0  0  0  0  0  0  0  0  0  0
   16.3285   -5.1959   -0.5318 C   0  0  0  0  0  0  0  0  0  0  0  0
   16.9849   -4.5352    0.0285 H   0  0  0  0  0  0  0  0  0  0  0  0
   15.0925   -4.7185   -0.9994 C   0  0  0  0  0  0  0  0  0  0  0  0
   14.6849   -3.2653   -0.7756 C   0  0  0  0  0  0  0  0  0  0  0  0
   15.0812   -2.3632   -1.9357 C   0  0  0  0  0  0  0  0  0  0  0  0
   15.8913   -2.8259   -2.9844 C   0  0  0  0  0  0  0  0  0  0  0  0
   16.2375   -3.8541   -2.9847 H   0  0  0  0  0  0  0  0  0  0  0  0
   16.2745   -1.9664   -4.0203 C   0  0  0  0  0  0  0  0  0  0  0  0
   16.9283   -2.3144   -4.8084 H   0  0  0  0  0  0  0  0  0  0  0  0
   15.8480   -0.6392   -4.0328 C   0  0  0  0  0  0  0  0  0  0  0  0
   16.1649    0.0247   -4.8328 H   0  0  0  0  0  0  0  0  0  0  0  0
   15.0336   -0.1603   -2.9987 C   0  0  0  0  0  0  0  0  0  0  0  0
   14.6898    1.2992   -2.8664 C   0  0  0  0  0  0  0  0  0  0  0  0
   13.7095    1.4157   -2.3850 H   0  0  0  0  0  0  0  0  0  0  0  0
   14.6631    1.7733   -3.8569 H   0  0  0  0  0  0  0  0  0  0  0  0
   15.7819    1.9278   -1.9868 C   0  0  1  0  0  0  0  0  0  0  0  0
   16.7267    1.8826   -2.5423 H   0  0  0  0  0  0  0  0  0  0  0  0
   15.5443    3.2881   -1.6261 O   0  0  0  0  0  0  0  0  0  0  0  0
   16.4652    3.5433   -0.5573 C   0  0  0  0  0  0  0  0  0  0  0  0
   16.2494    4.4740   -0.0261 H   0  0  0  0  0  0  0  0  0  0  0  0
   17.4857    3.5976   -0.9516 H   0  0  0  0  0  0  0  0  0  0  0  0
   16.3145    2.3314    0.3509 C   0  0  0  0  0  0  0  0  0  0  0  0
   17.2290    2.1116    0.9138 H   0  0  0  0  0  0  0  0  0  0  0  0
   15.4966    2.5019    1.0579 H   0  0  0  0  0  0  0  0  0  0  0  0
   15.9533    1.2211   -0.6329 C   0  0  0  0  0  0  0  0  0  0  0  0
   15.0387    0.7120   -0.3260 H   0  0  0  0  0  0  0  0  0  0  0  0
   16.7281    0.4580   -0.7064 H   0  0  0  0  0  0  0  0  0  0  0  0
   14.6477   -1.0286   -1.9726 C   0  0  0  0  0  0  0  0  0  0  0  0
   14.0233   -0.6390   -1.1737 H   0  0  0  0  0  0  0  0  0  0  0  0
   13.1841   -3.1161   -0.4528 C   0  0  0  0  0  0  0  0  0  0  0  0
   12.2357   -3.4074   -1.1752 O   0  0  0  0  0  0  0  0  0  0  0  0
   13.0348   -2.5682    0.8062 N   0  0  0  0  0  0  0  0  0  0  0  0
   11.7783   -2.2678    1.4932 C   0  0  0  0  0  0  0  0  0  0  0  0
   10.9201   -2.4661    0.8405 H   0  0  0  0  0  0  0  0  0  0  0  0
   11.7418   -1.2114    1.7867 H   0  0  0  0  0  0  0  0  0  0  0  0
   11.6743   -2.8851    2.3943 H   0  0  0  0  0  0  0  0  0  0  0  0
   14.2997   -2.4000    1.3191 C   0  0  0  0  0  0  0  0  0  0  0  0
   14.5677   -1.9846    2.5887 N   0  0  0  0  0  0  0  0  0  0  0  0
   15.5097   -2.1565    2.9330 H   0  0  0  0  0  0  0  0  0  0  0  0
   13.8023   -2.0329    3.2572 H   0  0  0  0  0  0  0  0  0  0  0  0
   15.2319   -2.7371    0.4934 N   0  0  0  0  0  4  0  0  0  0  0  0
   16.2223   -2.7644    0.7432 H   0  0  0  0  0  0  0  0  0  0  0  0
   14.2645   -5.5924   -1.7270 C   0  0  0  0  0  0  0  0  0  0  0  0
   13.3072   -5.2450   -2.1053 H   0  0  0  0  0  0  0  0  0  0  0  0
   14.6668   -6.9105   -1.9798 C   0  0  0  0  0  0  0  0  0  0  0  0
   14.0251   -7.5741   -2.5494 H   0  0  0  0  0  0  0  0  0  0  0  0
  1  2  1  0
  2  3  2  0
  3  4  1  0
  3  5  1  0
  5  6  1  0
  5  7  2  0
  7  8  1  0
  8  9  1  0
  9 10  2  0
 10 11  1  0
 10 12  1  0
 12 13  1  0
 12 14  2  0
 14 15  1  0
 14 16  1  0
 16 17  1  0
 17 18  1  0
 17 19  1  0
 17 20  1  0
 20 21  1  6
 20 22  1  0
 22 23  1  0
 23 24  1  0
 23 25  1  0
 23 26  1  0
 26 27  1  0
 26 28  1  0
 26 29  1  0
 29 30  1  0
 29 31  1  0
 16 32  2  0
 32 33  1  0
  8 34  1  0
 34 35  2  0
 34 36  1  0
 36 37  1  0
 37 38  1  0
 37 39  1  0
 37 40  1  0
 36 41  1  0
 41 42  1  0
 42 43  1  0
 42 44  1  0
 41 45  2  0
 45 46  1  0
  7 47  1  0
 47 48  1  0
 47 49  2  0
 49 50  1  0
 49  2  1  0
 45  8  1  0
 32  9  1  0
 29 20  1  0
M  CHG  1  45   1
M  END
>  <score>  (151) 
5.77274

$$$$

     RDKit          3D

 57 60  0  0  0  0  0  0  0  0999 V2000
   16.1012   -8.4630   -1.6167 H   0  0  0  0  0  0  0  0  0  0  0  0
   15.8582   -7.4113   -1.4846 C   0  0  0  0  0  0  0  0  0  0  0  0
   16.7416   -6.5673   -0.8054 C   0  0  0  0  0  0  0  0  0  0  0  0
   17.6728   -6.9595   -0.4100 H   0  0  0  0  0  0  0  0  0  0  0  0
   16.4099   -5.2218   -0.6077 C   0  0  0  0  0  0  0  0  0  0  0  0
   17.0777   -4.5685   -0.0531 H   0  0  0  0  0  0  0  0  0  0  0  0
   15.1935   -4.7002   -1.0712 C   0  0  0  0  0  0  0  0  0  0  0  0
   14.8276   -3.2486   -0.7679 C   0  0  0  0  0  0  0  0  0  0  0  0
   15.3913   -2.2452   -1.7718 C   0  0  0  0  0  0  0  0  0  0  0  0
   15.9446   -2.6474   -2.9993 C   0  0  0  0  0  0  0  0  0  0  0  0
   15.9974   -3.7070   -3.2307 H   0  0  0  0  0  0  0  0  0  0  0  0
   16.4198   -1.6978   -3.9177 C   0  0  0  0  0  0  0  0  0  0  0  0
   16.8487   -2.0124   -4.8634 H   0  0  0  0  0  0  0  0  0  0  0  0
   16.3361   -0.3342   -3.6218 C   0  0  0  0  0  0  0  0  0  0  0  0
   16.7035    0.4075   -4.3262 H   0  0  0  0  0  0  0  0  0  0  0  0
   15.7741    0.0892   -2.4153 C   0  0  0  0  0  0  0  0  0  0  0  0
   15.6316    1.5557   -2.1122 C   0  0  0  0  0  0  0  0  0  0  0  0
   16.4182    2.1317   -2.6111 H   0  0  0  0  0  0  0  0  0  0  0  0
   15.7095    1.7166   -1.0317 H   0  0  0  0  0  0  0  0  0  0  0  0
   14.2794    2.0591   -2.5876 C   0  0  0  0  0  0  0  0  0  0  0  0
   14.2427    2.0533   -3.6819 H   0  0  0  0  0  0  0  0  0  0  0  0
   13.4939    1.4008   -2.1993 H   0  0  0  0  0  0  0  0  0  0  0  0
   14.0509    3.4201   -2.0899 N   0  0  0  0  0  0  0  0  0  0  0  0
   14.9379    4.5024   -2.5354 C   0  0  0  0  0  0  0  0  0  0  0  0
   15.6276    4.1935   -3.3281 H   0  0  0  0  0  0  0  0  0  0  0  0
   14.3357    5.3436   -2.8940 H   0  0  0  0  0  0  0  0  0  0  0  0
   15.6929    4.8831   -1.2787 C   0  0  0  0  0  0  0  0  0  0  0  0
   16.0114    5.9288   -1.3042 H   0  0  0  0  0  0  0  0  0  0  0  0
   16.5674    4.2315   -1.1804 H   0  0  0  0  0  0  0  0  0  0  0  0
   14.7149    4.6287   -0.1377 C   0  0  0  0  0  0  0  0  0  0  0  0
   15.2359    4.3051    0.7713 H   0  0  0  0  0  0  0  0  0  0  0  0
   14.1560    5.5412    0.0899 H   0  0  0  0  0  0  0  0  0  0  0  0
   13.7778    3.5374   -0.6543 C   0  0  1  0  0  0  0  0  0  0  0  0
   13.9821    2.5990   -0.1211 H   0  0  0  0  0  0  0  0  0  0  0  0
   12.3220    3.9214   -0.4853 C   0  0  0  0  0  0  0  0  0  0  0  0
   12.1673    4.1011    0.5698 H   0  0  0  0  0  0  0  0  0  0  0  0
   11.6526    3.1248   -0.8222 H   0  0  0  0  0  0  0  0  0  0  0  0
   12.0886    4.8284   -1.0515 H   0  0  0  0  0  0  0  0  0  0  0  0
   15.3091   -0.8665   -1.5017 C   0  0  0  0  0  0  0  0  0  0  0  0
   14.8713   -0.5312   -0.5665 H   0  0  0  0  0  0  0  0  0  0  0  0
   13.3074   -3.0461   -0.5920 C   0  0  0  0  0  0  0  0  0  0  0  0
   12.4450   -3.1325   -1.4626 O   0  0  0  0  0  0  0  0  0  0  0  0
   13.0283   -2.6855    0.7135 N   0  0  0  0  0  0  0  0  0  0  0  0
   11.7255   -2.3148    1.2735 C   0  0  0  0  0  0  0  0  0  0  0  0
   10.9181   -2.4775    0.5456 H   0  0  0  0  0  0  0  0  0  0  0  0
   11.7127   -1.2557    1.5569 H   0  0  0  0  0  0  0  0  0  0  0  0
   11.5046   -2.9169    2.1624 H   0  0  0  0  0  0  0  0  0  0  0  0
   14.2384   -2.6217    1.3683 C   0  0  0  0  0  0  0  0  0  0  0  0
   14.4127   -2.2977    2.6764 N   0  0  0  0  0  0  0  0  0  0  0  0
   15.3463   -2.3341    3.0794 H   0  0  0  0  0  0  0  0  0  0  0  0
   13.5963   -2.1246    3.2623 H   0  0  0  0  0  0  0  0  0  0  0  0
   15.2464   -2.9099    0.6097 N   0  0  0  0  0  4  0  0  0  0  0  0
   16.2114   -2.9630    0.9425 H   0  0  0  0  0  0  0  0  0  0  0  0
   14.3170   -5.5581   -1.7650 C   0  0  0  0  0  0  0  0  0  0  0  0
   13.3625   -5.1793   -2.1178 H   0  0  0  0  0  0  0  0  0  0  0  0
   14.6483   -6.9073   -1.9701 C   0  0  0  0  0  0  0  0  0  0  0  0
   13.9605   -7.5706   -2.4866 H   0  0  0  0  0  0  0  0  0  0  0  0
  1  2  1  0
  2  3  2  0
  3  4  1  0
  3  5  1  0
  5  6  1  0
  5  7  2  0
  7  8  1  0
  8  9  1  0
  9 10  2  0
 10 11  1  0
 10 12  1  0
 12 13  1  0
 12 14  2  0
 14 15  1  0
 14 16  1  0
 16 17  1  0
 17 18  1  0
 17 19  1  0
 17 20  1  0
 20 21  1  0
 20 22  1  0
 20 23  1  0
 23 24  1  0
 24 25  1  0
 24 26  1  0
 24 27  1  0
 27 28  1  0
 27 29  1  0
 27 30  1  0
 30 31  1  0
 30 32  1  0
 30 33  1  0
 33 34  1  1
 33 35  1  0
 35 36  1  0
 35 37  1  0
 35 38  1  0
 16 39  2  0
 39 40  1  0
  8 41  1  0
 41 42  2  0
 41 43  1  0
 43 44  1  0
 44 45  1  0
 44 46  1  0
 44 47  1  0
 43 48  1  0
 48 49  1  0
 49 50  1  0
 49 51  1  0
 48 52  2  0
 52 53  1  0
  7 54  1  0
 54 55  1  0
 54 56  2  0
 56 57  1  0
 56  2  1  0
 52  8  1  0
 39  9  1  0
 33 23  1  0
M  CHG  1  52   1
M  END
>  <score>  (152) 
5.77219

$$$$

     RDKit          3D

 47 50  0  0  0  0  0  0  0  0999 V2000
   16.1222   -8.4869   -1.6114 H   0  0  0  0  0  0  0  0  0  0  0  0
   15.8541   -7.4416   -1.4716 C   0  0  0  0  0  0  0  0  0  0  0  0
   16.7292   -6.5833   -0.8019 C   0  0  0  0  0  0  0  0  0  0  0  0
   17.6735   -6.9563   -0.4174 H   0  0  0  0  0  0  0  0  0  0  0  0
   16.3891   -5.2402   -0.6089 C   0  0  0  0  0  0  0  0  0  0  0  0
   17.0681   -4.5898   -0.0661 H   0  0  0  0  0  0  0  0  0  0  0  0
   15.1708   -4.7181   -1.0742 C   0  0  0  0  0  0  0  0  0  0  0  0
   14.8148   -3.2530   -0.7858 C   0  0  0  0  0  0  0  0  0  0  0  0
   15.3917   -2.2457   -1.7801 C   0  0  0  0  0  0  0  0  0  0  0  0
   15.9502   -2.6434   -3.0056 C   0  0  0  0  0  0  0  0  0  0  0  0
   16.0057   -3.6967   -3.2601 H   0  0  0  0  0  0  0  0  0  0  0  0
   16.4226   -1.6927   -3.9188 C   0  0  0  0  0  0  0  0  0  0  0  0
   16.8524   -2.0068   -4.8640 H   0  0  0  0  0  0  0  0  0  0  0  0
   16.3297   -0.3276   -3.6298 C   0  0  0  0  0  0  0  0  0  0  0  0
   16.6828    0.4045   -4.3505 H   0  0  0  0  0  0  0  0  0  0  0  0
   15.7723    0.1071   -2.4211 C   0  0  0  0  0  0  0  0  0  0  0  0
   15.6174    1.5969   -2.1402 C   0  0  2  0  0  0  0  0  0  0  0  0
   14.6447    1.9167   -2.5192 H   0  0  0  0  0  0  0  0  0  0  0  0
   16.6977    2.4811   -2.7538 C   0  0  0  0  0  0  0  0  0  0  0  0
   16.4565    2.7268   -3.7915 H   0  0  0  0  0  0  0  0  0  0  0  0
   17.6632    1.9693   -2.7368 H   0  0  0  0  0  0  0  0  0  0  0  0
   16.7714    3.6730   -1.9580 O   0  0  0  0  0  0  0  0  0  0  0  0
   16.1635    3.4462   -0.6817 C   0  0  0  0  0  0  0  0  0  0  0  0
   16.8597    3.6470    0.1421 H   0  0  0  0  0  0  0  0  0  0  0  0
   15.3004    4.1127   -0.5644 H   0  0  0  0  0  0  0  0  0  0  0  0
   15.7154    1.9901   -0.6775 C   0  0  0  0  0  0  0  0  0  0  0  0
   16.4380    1.3658   -0.1475 H   0  0  0  0  0  0  0  0  0  0  0  0
   14.7529    1.8965   -0.1860 H   0  0  0  0  0  0  0  0  0  0  0  0
   15.3090   -0.8622   -1.5129 C   0  0  0  0  0  0  0  0  0  0  0  0
   14.8735   -0.5288   -0.5769 H   0  0  0  0  0  0  0  0  0  0  0  0
   13.2992   -3.0256   -0.6053 C   0  0  0  0  0  0  0  0  0  0  0  0
   12.4299   -3.0873   -1.4722 O   0  0  0  0  0  0  0  0  0  0  0  0
   13.0238   -2.6744    0.7012 N   0  0  0  0  0  0  0  0  0  0  0  0
   11.7185   -2.3130    1.2636 C   0  0  0  0  0  0  0  0  0  0  0  0
   11.5022   -2.9199    2.1474 H   0  0  0  0  0  0  0  0  0  0  0  0
   11.6956   -1.2596    1.5602 H   0  0  0  0  0  0  0  0  0  0  0  0
   10.9127   -2.4743    0.5386 H   0  0  0  0  0  0  0  0  0  0  0  0
   14.2263   -2.6294    1.3646 C   0  0  0  0  0  0  0  0  0  0  0  0
   14.3946   -2.3317    2.6871 N   0  0  0  0  0  0  0  0  0  0  0  0
   15.3307   -2.3545    3.0919 H   0  0  0  0  0  0  0  0  0  0  0  0
   13.5807   -2.1269    3.2635 H   0  0  0  0  0  0  0  0  0  0  0  0
   15.2218   -2.9064    0.5931 N   0  0  0  0  0  4  0  0  0  0  0  0
   16.1912   -2.9079    0.9048 H   0  0  0  0  0  0  0  0  0  0  0  0
   14.3026   -5.5910   -1.7684 C   0  0  0  0  0  0  0  0  0  0  0  0
   13.3533   -5.2359   -2.1595 H   0  0  0  0  0  0  0  0  0  0  0  0
   14.6430   -6.9419   -1.9613 C   0  0  0  0  0  0  0  0  0  0  0  0
   13.9722   -7.6147   -2.4885 H   0  0  0  0  0  0  0  0  0  0  0  0
  1  2  1  0
  2  3  2  0
  3  4  1  0
  3  5  1  0
  5  6  1  0
  5  7  2  0
  7  8  1  0
  8  9  1  0
  9 10  2  0
 10 11  1  0
 10 12  1  0
 12 13  1  0
 12 14  2  0
 14 15  1  0
 14 16  1  0
 16 17  1  0
 17 18  1  6
 17 19  1  0
 19 20  1  0
 19 21  1  0
 19 22  1  0
 22 23  1  0
 23 24  1  0
 23 25  1  0
 23 26  1  0
 26 27  1  0
 26 28  1  0
 16 29  2  0
 29 30  1  0
  8 31  1  0
 31 32  2  0
 31 33  1  0
 33 34  1  0
 34 35  1  0
 34 36  1  0
 34 37  1  0
 33 38  1  0
 38 39  1  0
 39 40  1  0
 39 41  1  0
 38 42  2  0
 42 43  1  0
  7 44  1  0
 44 45  1  0
 44 46  2  0
 46 47  1  0
 46  2  1  0
 42  8  1  0
 29  9  1  0
 26 17  1  0
M  CHG  1  42   1
M  END
>  <score>  (153) 
5.772

$$$$

     RDKit          3D

 48 51  0  0  0  0  0  0  0  0999 V2000
   16.1262   -8.4902   -1.6108 H   0  0  0  0  0  0  0  0  0  0  0  0
   15.8542   -7.4462   -1.4694 C   0  0  0  0  0  0  0  0  0  0  0  0
   16.7266   -6.5871   -0.7987 C   0  0  0  0  0  0  0  0  0  0  0  0
   17.6758   -6.9553   -0.4196 H   0  0  0  0  0  0  0  0  0  0  0  0
   16.3843   -5.2443   -0.6079 C   0  0  0  0  0  0  0  0  0  0  0  0
   17.0699   -4.5961   -0.0700 H   0  0  0  0  0  0  0  0  0  0  0  0
   15.1647   -4.7226   -1.0718 C   0  0  0  0  0  0  0  0  0  0  0  0
   14.8088   -3.2544   -0.7855 C   0  0  0  0  0  0  0  0  0  0  0  0
   15.3926   -2.2523   -1.7827 C   0  0  0  0  0  0  0  0  0  0  0  0
   15.9503   -2.6456   -3.0098 C   0  0  0  0  0  0  0  0  0  0  0  0
   16.0077   -3.6974   -3.2696 H   0  0  0  0  0  0  0  0  0  0  0  0
   16.4253   -1.6938   -3.9207 C   0  0  0  0  0  0  0  0  0  0  0  0
   16.8542   -2.0065   -4.8666 H   0  0  0  0  0  0  0  0  0  0  0  0
   16.3358   -0.3311   -3.6325 C   0  0  0  0  0  0  0  0  0  0  0  0
   16.6825    0.3959   -4.3625 H   0  0  0  0  0  0  0  0  0  0  0  0
   15.7766    0.1003   -2.4204 C   0  0  0  0  0  0  0  0  0  0  0  0
   15.5967    1.5842   -2.1360 C   0  0  1  0  0  0  0  0  0  0  0  0
   14.6183    1.8971   -2.5104 H   0  0  0  0  0  0  0  0  0  0  0  0
   15.6879    1.9246   -0.7167 N   0  0  0  0  0  0  0  0  0  0  0  0
   16.4147    1.3736   -0.2621 H   0  0  0  0  0  0  0  0  0  0  0  0
   15.9498    3.3568   -0.5685 C   0  0  0  0  0  0  0  0  0  0  0  0
   16.5504    3.5568    0.3247 H   0  0  0  0  0  0  0  0  0  0  0  0
   15.0071    3.9120   -0.4894 H   0  0  0  0  0  0  0  0  0  0  0  0
   16.6877    3.7393   -1.8444 C   0  0  0  0  0  0  0  0  0  0  0  0
   17.7125    4.0422   -1.6260 H   0  0  0  0  0  0  0  0  0  0  0  0
   16.1809    4.5730   -2.3334 H   0  0  0  0  0  0  0  0  0  0  0  0
   16.6658    2.4934   -2.7282 C   0  0  0  0  0  0  0  0  0  0  0  0
   17.6400    2.0057   -2.7015 H   0  0  0  0  0  0  0  0  0  0  0  0
   16.4392    2.7447   -3.7617 H   0  0  0  0  0  0  0  0  0  0  0  0
   15.3125   -0.8724   -1.5128 C   0  0  0  0  0  0  0  0  0  0  0  0
   14.8726   -0.5378   -0.5768 H   0  0  0  0  0  0  0  0  0  0  0  0
   13.2936   -3.0196   -0.6093 C   0  0  0  0  0  0  0  0  0  0  0  0
   12.4240   -3.0814   -1.4768 O   0  0  0  0  0  0  0  0  0  0  0  0
   13.0204   -2.6706    0.6988 N   0  0  0  0  0  0  0  0  0  0  0  0
   11.7188   -2.3127    1.2624 C   0  0  0  0  0  0  0  0  0  0  0  0
   10.9150   -2.4755    0.5382 H   0  0  0  0  0  0  0  0  0  0  0  0
   11.6936   -1.2597    1.5592 H   0  0  0  0  0  0  0  0  0  0  0  0
   11.5013   -2.9198    2.1457 H   0  0  0  0  0  0  0  0  0  0  0  0
   14.2240   -2.6305    1.3653 C   0  0  0  0  0  0  0  0  0  0  0  0
   14.3917   -2.3389    2.6896 N   0  0  0  0  0  0  0  0  0  0  0  0
   13.5795   -2.1262    3.2653 H   0  0  0  0  0  0  0  0  0  0  0  0
   15.3260   -2.3570    3.0947 H   0  0  0  0  0  0  0  0  0  0  0  0
   15.2190   -2.9074    0.5920 N   0  0  0  0  0  4  0  0  0  0  0  0
   16.1900   -2.8966    0.8989 H   0  0  0  0  0  0  0  0  0  0  0  0
   14.2996   -5.5974   -1.7687 C   0  0  0  0  0  0  0  0  0  0  0  0
   13.3521   -5.2470   -2.1690 H   0  0  0  0  0  0  0  0  0  0  0  0
   14.6429   -6.9483   -1.9602 C   0  0  0  0  0  0  0  0  0  0  0  0
   13.9730   -7.6216   -2.4889 H   0  0  0  0  0  0  0  0  0  0  0  0
  1  2  1  0
  2  3  2  0
  3  4  1  0
  3  5  1  0
  5  6  1  0
  5  7  2  0
  7  8  1  0
  8  9  1  0
  9 10  2  0
 10 11  1  0
 10 12  1  0
 12 13  1  0
 12 14  2  0
 14 15  1  0
 14 16  1  0
 16 17  1  0
 17 18  1  6
 17 19  1  0
 19 20  1  0
 19 21  1  0
 21 22  1  0
 21 23  1  0
 21 24  1  0
 24 25  1  0
 24 26  1  0
 24 27  1  0
 27 28  1  0
 27 29  1  0
 16 30  2  0
 30 31  1  0
  8 32  1  0
 32 33  2  0
 32 34  1  0
 34 35  1  0
 35 36  1  0
 35 37  1  0
 35 38  1  0
 34 39  1  0
 39 40  1  0
 40 41  1  0
 40 42  1  0
 39 43  2  0
 43 44  1  0
  7 45  1  0
 45 46  1  0
 45 47  2  0
 47 48  1  0
 47  2  1  0
 43  8  1  0
 30  9  1  0
 27 17  1  0
M  CHG  1  43   1
M  END
>  <score>  (154) 
5.76777

$$$$

     RDKit          3D

 51 54  0  0  0  0  0  0  0  0999 V2000
   16.1603   -8.1284   -1.6817 H   0  0  0  0  0  0  0  0  0  0  0  0
   15.9256   -7.0936   -1.4552 C   0  0  0  0  0  0  0  0  0  0  0  0
   16.8271   -6.3125   -0.7269 C   0  0  0  0  0  0  0  0  0  0  0  0
   17.7661   -6.7367   -0.3858 H   0  0  0  0  0  0  0  0  0  0  0  0
   16.5249   -4.9778   -0.4389 C   0  0  0  0  0  0  0  0  0  0  0  0
   17.2459   -4.3748    0.1023 H   0  0  0  0  0  0  0  0  0  0  0  0
   15.3108   -4.4078   -0.8555 C   0  0  0  0  0  0  0  0  0  0  0  0
   15.0055   -2.9271   -0.6179 C   0  0  0  0  0  0  0  0  0  0  0  0
   15.5967   -2.0742   -1.7476 C   0  0  0  0  0  0  0  0  0  0  0  0
   16.0750   -2.7172   -2.8982 C   0  0  0  0  0  0  0  0  0  0  0  0
   16.0718   -3.8036   -2.9542 H   0  0  0  0  0  0  0  0  0  0  0  0
   16.5276   -1.9840   -3.9849 C   0  0  0  0  0  0  0  0  0  0  0  0
   16.8416   -2.4910   -4.8781 H   0  0  0  0  0  0  0  0  0  0  0  0
   16.5360   -0.5987   -3.9592 C   0  0  0  0  0  0  0  0  0  0  0  0
   16.8983   -0.0764   -4.8424 H   0  0  0  0  0  0  0  0  0  0  0  0
   16.0445    0.1026   -2.8461 C   0  0  0  0  0  0  0  0  0  0  0  0
   15.9702    1.5876   -2.9263 C   0  0  0  0  0  0  0  0  0  0  0  0
   16.1225    2.1277   -4.0215 O   0  0  0  0  0  0  0  0  0  0  0  0
   15.7086    2.4651   -1.7734 C   0  0  0  0  0  0  0  0  0  0  0  0
   15.3435    3.8104   -1.9933 C   0  0  0  0  0  0  0  0  0  0  0  0
   15.2592    4.1976   -3.0057 H   0  0  0  0  0  0  0  0  0  0  0  0
   15.0847    4.6720   -0.9274 C   0  0  0  0  0  0  0  0  0  0  0  0
   14.8185    5.7058   -1.1139 H   0  0  0  0  0  0  0  0  0  0  0  0
   15.1546    4.1991    0.3823 C   0  0  0  0  0  0  0  0  0  0  0  0
   14.8475    5.0725    1.5622 C   0  0  0  0  0  0  0  0  0  0  0  0
   15.3629    6.0306    1.4812 H   0  0  0  0  0  0  0  0  0  0  0  0
   13.7699    5.2463    1.6182 H   0  0  0  0  0  0  0  0  0  0  0  0
   15.1808    4.5879    2.4869 H   0  0  0  0  0  0  0  0  0  0  0  0
   15.5243    2.8792    0.6000 C   0  0  0  0  0  0  0  0  0  0  0  0
   15.5868    2.5601    1.6235 H   0  0  0  0  0  0  0  0  0  0  0  0
   15.8282    2.0127   -0.4501 C   0  0  0  0  0  0  0  0  0  0  0  0
   16.1543    1.0012   -0.2204 H   0  0  0  0  0  0  0  0  0  0  0  0
   15.5798   -0.6589   -1.7392 C   0  0  0  0  0  0  0  0  0  0  0  0
   15.1425   -0.1671   -0.8792 H   0  0  0  0  0  0  0  0  0  0  0  0
   13.4877   -2.6972   -0.4533 C   0  0  0  0  0  0  0  0  0  0  0  0
   12.6086   -2.8956   -1.2930 O   0  0  0  0  0  0  0  0  0  0  0  0
   13.2186   -2.3135    0.8420 N   0  0  0  0  0  0  0  0  0  0  0  0
   11.9064   -2.1674    1.4676 C   0  0  0  0  0  0  0  0  0  0  0  0
   11.1026   -2.4312    0.7701 H   0  0  0  0  0  0  0  0  0  0  0  0
   11.8237   -2.8190    2.3456 H   0  0  0  0  0  0  0  0  0  0  0  0
   11.7603   -1.1315    1.7875 H   0  0  0  0  0  0  0  0  0  0  0  0
   14.4257   -2.2461    1.4954 C   0  0  0  0  0  0  0  0  0  0  0  0
   14.5472   -1.9824    2.8245 N   0  0  0  0  0  0  0  0  0  0  0  0
   13.7055   -1.9994    3.3961 H   0  0  0  0  0  0  0  0  0  0  0  0
   15.4479   -2.1663    3.2588 H   0  0  0  0  0  0  0  0  0  0  0  0
   15.4366   -2.5028    0.7321 N   0  0  0  0  0  4  0  0  0  0  0  0
   16.3769   -2.6746    1.0954 H   0  0  0  0  0  0  0  0  0  0  0  0
   14.4199   -5.2035   -1.6021 C   0  0  0  0  0  0  0  0  0  0  0  0
   13.4893   -4.7780   -1.9670 H   0  0  0  0  0  0  0  0  0  0  0  0
   14.7226   -6.5370   -1.8966 C   0  0  0  0  0  0  0  0  0  0  0  0
   14.0223   -7.1359   -2.4706 H   0  0  0  0  0  0  0  0  0  0  0  0
  1  2  1  0
  2  3  2  0
  3  4  1  0
  3  5  1  0
  5  6  1  0
  5  7  2  0
  7  8  1  0
  8  9  1  0
  9 10  2  0
 10 11  1  0
 10 12  1  0
 12 13  1  0
 12 14  2  0
 14 15  1  0
 14 16  1  0
 16 17  1  0
 17 18  2  0
 17 19  1  0
 19 20  2  0
 20 21  1  0
 20 22  1  0
 22 23  1  0
 22 24  2  0
 24 25  1  0
 25 26  1  0
 25 27  1  0
 25 28  1  0
 24 29  1  0
 29 30  1  0
 29 31  2  0
 31 32  1  0
 16 33  2  0
 33 34  1  0
  8 35  1  0
 35 36  2  0
 35 37  1  0
 37 38  1  0
 38 39  1  0
 38 40  1  0
 38 41  1  0
 37 42  1  0
 42 43  1  0
 43 44  1  0
 43 45  1  0
 42 46  2  0
 46 47  1  0
  7 48  1  0
 48 49  1  0
 48 50  2  0
 50 51  1  0
 50  2  1  0
 46  8  1  0
 33  9  1  0
 31 19  1  0
M  CHG  1  46   1
M  END
>  <score>  (155) 
5.76771

$$$$

     RDKit          3D

 56 58  0  0  0  0  0  0  0  0999 V2000
   16.1990   -8.3661   -1.8383 H   0  0  0  0  0  0  0  0  0  0  0  0
   15.9526   -7.3383   -1.5850 C   0  0  0  0  0  0  0  0  0  0  0  0
   16.8475   -6.5624   -0.8421 C   0  0  0  0  0  0  0  0  0  0  0  0
   17.7966   -6.9861   -0.5249 H   0  0  0  0  0  0  0  0  0  0  0  0
   16.5198   -5.2419   -0.4989 C   0  0  0  0  0  0  0  0  0  0  0  0
   17.2237   -4.6545    0.0819 H   0  0  0  0  0  0  0  0  0  0  0  0
   15.2961   -4.6717   -0.8939 C   0  0  0  0  0  0  0  0  0  0  0  0
   14.9263   -3.2253   -0.5412 C   0  0  0  0  0  0  0  0  0  0  0  0
   15.3970   -2.2129   -1.5802 C   0  0  0  0  0  0  0  0  0  0  0  0
   16.0190   -2.6103   -2.7752 C   0  0  0  0  0  0  0  0  0  0  0  0
   16.2192   -3.6633   -2.9533 H   0  0  0  0  0  0  0  0  0  0  0  0
   16.3704   -1.6629   -3.7429 C   0  0  0  0  0  0  0  0  0  0  0  0
   16.8458   -1.9856   -4.6645 H   0  0  0  0  0  0  0  0  0  0  0  0
   16.1070   -0.3037   -3.5256 C   0  0  0  0  0  0  0  0  0  0  0  0
   16.3882    0.4223   -4.2825 H   0  0  0  0  0  0  0  0  0  0  0  0
   15.4865    0.1180   -2.3384 C   0  0  0  0  0  0  0  0  0  0  0  0
   15.1742    1.5740   -2.0669 C   0  0  0  0  0  0  0  0  0  0  0  0
   14.1000    1.6987   -1.8946 H   0  0  0  0  0  0  0  0  0  0  0  0
   15.4465    2.1806   -2.9348 H   0  0  0  0  0  0  0  0  0  0  0  0
   15.9507    2.0783   -0.8438 C   0  0  0  0  0  0  0  0  0  0  0  0
   15.6374    1.5367    0.0508 H   0  0  0  0  0  0  0  0  0  0  0  0
   17.0104    1.8501   -0.9891 H   0  0  0  0  0  0  0  0  0  0  0  0
   15.8074    3.5495   -0.6736 N   0  0  0  0  0  0  0  0  0  0  0  0
   15.0050    4.1386    0.4178 C   0  0  0  0  0  0  0  0  0  0  0  0
   13.9412    3.9303    0.2604 H   0  0  0  0  0  0  0  0  0  0  0  0
   15.1328    5.2276    0.4612 H   0  0  0  0  0  0  0  0  0  0  0  0
   15.4687    3.5370    1.7311 C   0  0  0  0  0  0  0  0  0  0  0  0
   16.5021    3.8156    1.9660 H   0  0  0  0  0  0  0  0  0  0  0  0
   14.8199    3.8199    2.5668 H   0  0  0  0  0  0  0  0  0  0  0  0
   15.4304    2.4678    1.5954 H   0  0  0  0  0  0  0  0  0  0  0  0
   16.0219    4.3710   -1.8641 C   0  0  0  0  0  0  0  0  0  0  0  0
   15.1870    4.2262   -2.5626 H   0  0  0  0  0  0  0  0  0  0  0  0
   16.0701    5.4303   -1.5860 H   0  0  0  0  0  0  0  0  0  0  0  0
   17.3461    3.9097   -2.4647 C   0  0  0  0  0  0  0  0  0  0  0  0
   17.7254    4.6324   -3.1804 H   0  0  0  0  0  0  0  0  0  0  0  0
   17.1996    2.9534   -2.9713 H   0  0  0  0  0  0  0  0  0  0  0  0
   18.0987    3.7717   -1.6793 H   0  0  0  0  0  0  0  0  0  0  0  0
   15.1422   -0.8425   -1.3820 C   0  0  0  0  0  0  0  0  0  0  0  0
   14.6615   -0.5092   -0.4667 H   0  0  0  0  0  0  0  0  0  0  0  0
   13.4108   -3.0498   -0.3221 C   0  0  0  0  0  0  0  0  0  0  0  0
   12.5118   -3.2940   -1.1285 O   0  0  0  0  0  0  0  0  0  0  0  0
   13.1709   -2.5366    0.9323 N   0  0  0  0  0  0  0  0  0  0  0  0
   11.8663   -2.2098    1.5110 C   0  0  0  0  0  0  0  0  0  0  0  0
   11.6831   -2.7988    2.4167 H   0  0  0  0  0  0  0  0  0  0  0  0
   11.0624   -2.4268    0.7976 H   0  0  0  0  0  0  0  0  0  0  0  0
   11.8093   -1.1470    1.7685 H   0  0  0  0  0  0  0  0  0  0  0  0
   14.3915   -2.4306    1.5561 C   0  0  0  0  0  0  0  0  0  0  0  0
   14.5629   -1.9818    2.8254 N   0  0  0  0  0  0  0  0  0  0  0  0
   15.4610   -2.1854    3.2553 H   0  0  0  0  0  0  0  0  0  0  0  0
   13.7358   -1.9704    3.4204 H   0  0  0  0  0  0  0  0  0  0  0  0
   15.3724   -2.8300    0.8129 N   0  0  0  0  0  4  0  0  0  0  0  0
   16.3515   -2.7979    1.0991 H   0  0  0  0  0  0  0  0  0  0  0  0
   14.4191   -5.4630   -1.6636 C   0  0  0  0  0  0  0  0  0  0  0  0
   13.4741   -5.0521   -2.0042 H   0  0  0  0  0  0  0  0  0  0  0  0
   14.7391   -6.7854   -2.0013 C   0  0  0  0  0  0  0  0  0  0  0  0
   14.0468   -7.3844   -2.5869 H   0  0  0  0  0  0  0  0  0  0  0  0
  1  2  1  0
  2  3  2  0
  3  4  1  0
  3  5  1  0
  5  6  1  0
  5  7  2  0
  7  8  1  0
  8  9  1  0
  9 10  2  0
 10 11  1  0
 10 12  1  0
 12 13  1  0
 12 14  2  0
 14 15  1  0
 14 16  1  0
 16 17  1  0
 17 18  1  0
 17 19  1  0
 17 20  1  0
 20 21  1  0
 20 22  1  0
 20 23  1  0
 23 24  1  0
 24 25  1  0
 24 26  1  0
 24 27  1  0
 27 28  1  0
 27 29  1  0
 27 30  1  0
 23 31  1  0
 31 32  1  0
 31 33  1  0
 31 34  1  0
 34 35  1  0
 34 36  1  0
 34 37  1  0
 16 38  2  0
 38 39  1  0
  8 40  1  0
 40 41  2  0
 40 42  1  0
 42 43  1  0
 43 44  1  0
 43 45  1  0
 43 46  1  0
 42 47  1  0
 47 48  1  0
 48 49  1  0
 48 50  1  0
 47 51  2  0
 51 52  1  0
  7 53  1  0
 53 54  1  0
 53 55  2  0
 55 56  1  0
 55  2  1  0
 51  8  1  0
 38  9  1  0
M  CHG  1  51   1
M  END
>  <score>  (156) 
5.76761

$$$$

     RDKit          3D

 54 57  0  0  0  0  0  0  0  0999 V2000
   17.1710  -10.3598    1.8086 H   0  0  0  0  0  0  0  0  0  0  0  0
   16.2616  -10.1545    1.2484 C   0  0  0  0  0  0  0  0  0  0  0  0
   16.1889  -10.4743   -0.1095 C   0  0  0  0  0  0  0  0  0  0  0  0
   17.0554  -10.8836   -0.6197 H   0  0  0  0  0  0  0  0  0  0  0  0
   14.9991  -10.2715   -0.8170 C   0  0  0  0  0  0  0  0  0  0  0  0
   14.9539  -10.5562   -1.8596 H   0  0  0  0  0  0  0  0  0  0  0  0
   13.8844   -9.6805   -0.2010 C   0  0  0  0  0  0  0  0  0  0  0  0
   12.6391   -9.3971   -1.0194 C   0  0  0  0  0  0  0  0  0  0  0  0
   12.5315  -10.1569   -1.7991 H   0  0  0  0  0  0  0  0  0  0  0  0
   11.7465   -9.4519   -0.3907 H   0  0  0  0  0  0  0  0  0  0  0  0
   12.7146   -8.0685   -1.6472 N   0  0  0  0  0  0  0  0  0  0  0  0
   12.5833   -7.3380   -0.9451 H   0  0  0  0  0  0  0  0  0  0  0  0
   13.9369   -7.8122   -2.4386 C   0  0  0  0  0  0  0  0  0  0  0  0
   13.6807   -7.3275   -3.3825 H   0  0  0  0  0  0  0  0  0  0  0  0
   14.4436   -8.7551   -2.6746 H   0  0  0  0  0  0  0  0  0  0  0  0
   14.8773   -6.9064   -1.6920 C   0  0  0  0  0  0  0  0  0  0  0  0
   16.1213   -7.3733   -1.2490 C   0  0  0  0  0  0  0  0  0  0  0  0
   16.4010   -8.4053   -1.4200 H   0  0  0  0  0  0  0  0  0  0  0  0
   17.0082   -6.5166   -0.5906 C   0  0  0  0  0  0  0  0  0  0  0  0
   17.9720   -6.8842   -0.2487 H   0  0  0  0  0  0  0  0  0  0  0  0
   16.6592   -5.1807   -0.3809 C   0  0  0  0  0  0  0  0  0  0  0  0
   17.3566   -4.5221    0.1294 H   0  0  0  0  0  0  0  0  0  0  0  0
   15.4072   -4.6962   -0.7939 C   0  0  0  0  0  0  0  0  0  0  0  0
   14.9867   -3.2537   -0.5401 C   0  0  0  0  0  0  0  0  0  0  0  0
   15.5069   -2.2811   -1.5934 C   0  0  0  0  0  0  0  0  0  0  0  0
   15.9979   -2.7409   -2.8275 C   0  0  0  0  0  0  0  0  0  0  0  0
   16.0599   -3.8084   -3.0113 H   0  0  0  0  0  0  0  0  0  0  0  0
   16.4064   -1.8438   -3.8211 C   0  0  0  0  0  0  0  0  0  0  0  0
   16.7767   -2.2142   -4.7725 H   0  0  0  0  0  0  0  0  0  0  0  0
   16.3382   -0.4678   -3.5915 C   0  0  0  0  0  0  0  0  0  0  0  0
   16.6474    0.2288   -4.3654 H   0  0  0  0  0  0  0  0  0  0  0  0
   15.8518    0.0104   -2.3699 C   0  0  0  0  0  0  0  0  0  0  0  0
   15.7956    1.0799   -2.1873 H   0  0  0  0  0  0  0  0  0  0  0  0
   15.4362   -0.8914   -1.3820 C   0  0  0  0  0  0  0  0  0  0  0  0
   15.0556   -0.5081   -0.4387 H   0  0  0  0  0  0  0  0  0  0  0  0
   13.4563   -3.1054   -0.3555 C   0  0  0  0  0  0  0  0  0  0  0  0
   12.5836   -3.2621   -1.2122 O   0  0  0  0  0  0  0  0  0  0  0  0
   13.1875   -2.7587    0.9546 N   0  0  0  0  0  0  0  0  0  0  0  0
   11.9208   -2.3098    1.5260 C   0  0  0  0  0  0  0  0  0  0  0  0
   11.0696   -2.7432    0.9925 H   0  0  0  0  0  0  0  0  0  0  0  0
   11.8517   -1.2164    1.4743 H   0  0  0  0  0  0  0  0  0  0  0  0
   11.8644   -2.6160    2.5792 H   0  0  0  0  0  0  0  0  0  0  0  0
   14.4006   -2.5724    1.5678 C   0  0  0  0  0  0  0  0  0  0  0  0
   14.5541   -2.1370    2.8418 N   0  0  0  0  0  0  0  0  0  0  0  0
   13.7466   -2.2128    3.4569 H   0  0  0  0  0  0  0  0  0  0  0  0
   15.4835   -2.2352    3.2379 H   0  0  0  0  0  0  0  0  0  0  0  0
   15.4082   -2.8525    0.8141 N   0  0  0  0  0  4  0  0  0  0  0  0
   16.3847   -2.7631    1.1021 H   0  0  0  0  0  0  0  0  0  0  0  0
   14.5317   -5.5715   -1.4515 C   0  0  0  0  0  0  0  0  0  0  0  0
   13.5667   -5.1989   -1.7775 H   0  0  0  0  0  0  0  0  0  0  0  0
   13.9764   -9.3419    1.1602 C   0  0  0  0  0  0  0  0  0  0  0  0
   13.1422   -8.8725    1.6684 H   0  0  0  0  0  0  0  0  0  0  0  0
   15.1490   -9.5942    1.8860 C   0  0  0  0  0  0  0  0  0  0  0  0
   15.1876   -9.3441    2.9421 H   0  0  0  0  0  0  0  0  0  0  0  0
  1  2  1  0
  2  3  2  0
  3  4  1  0
  3  5  1  0
  5  6  1  0
  5  7  2  0
  7  8  1  0
  8  9  1  0
  8 10  1  0
  8 11  1  0
 11 12  1  0
 11 13  1  0
 13 14  1  0
 13 15  1  0
 13 16  1  0
 16 17  2  0
 17 18  1  0
 17 19  1  0
 19 20  1  0
 19 21  2  0
 21 22  1  0
 21 23  1  0
 23 24  1  0
 24 25  1  0
 25 26  2  0
 26 27  1  0
 26 28  1  0
 28 29  1  0
 28 30  2  0
 30 31  1  0
 30 32  1  0
 32 33  1  0
 32 34  2  0
 34 35  1  0
 24 36  1  0
 36 37  2  0
 36 38  1  0
 38 39  1  0
 39 40  1  0
 39 41  1  0
 39 42  1  0
 38 43  1  0
 43 44  1  0
 44 45  1  0
 44 46  1  0
 43 47  2  0
 47 48  1  0
 23 49  2  0
 49 50  1  0
  7 51  1  0
 51 52  1  0
 51 53  2  0
 53 54  1  0
 53  2  1  0
 49 16  1  0
 47 24  1  0
 34 25  1  0
M  CHG  1  47   1
M  END
>  <score>  (157) 
5.76167

$$$$

     RDKit          3D

 45 48  0  0  0  0  0  0  0  0999 V2000
   16.1104   -8.4720   -1.6140 H   0  0  0  0  0  0  0  0  0  0  0  0
   15.8578   -7.4235   -1.4777 C   0  0  0  0  0  0  0  0  0  0  0  0
   16.7349   -6.5715   -0.8014 C   0  0  0  0  0  0  0  0  0  0  0  0
   17.6731   -6.9569   -0.4140 H   0  0  0  0  0  0  0  0  0  0  0  0
   16.3978   -5.2258   -0.6083 C   0  0  0  0  0  0  0  0  0  0  0  0
   17.0778   -4.5800   -0.0613 H   0  0  0  0  0  0  0  0  0  0  0  0
   15.1837   -4.6973   -1.0789 C   0  0  0  0  0  0  0  0  0  0  0  0
   14.8212   -3.2323   -0.7768 C   0  0  0  0  0  0  0  0  0  0  0  0
   15.3811   -2.2044   -1.7667 C   0  0  0  0  0  0  0  0  0  0  0  0
   15.9364   -2.5952   -2.9945 C   0  0  0  0  0  0  0  0  0  0  0  0
   15.9949   -3.6506   -3.2400 H   0  0  0  0  0  0  0  0  0  0  0  0
   16.4139   -1.6421   -3.9036 C   0  0  0  0  0  0  0  0  0  0  0  0
   16.8448   -1.9679   -4.8467 H   0  0  0  0  0  0  0  0  0  0  0  0
   16.3333   -0.2725   -3.5993 C   0  0  0  0  0  0  0  0  0  0  0  0
   16.7034    0.4674   -4.3003 H   0  0  0  0  0  0  0  0  0  0  0  0
   15.7831    0.1598   -2.3850 C   0  0  0  0  0  0  0  0  0  0  0  0
   15.7097    1.5318   -2.0760 N   0  0  0  0  0  0  0  0  0  0  0  0
   16.1042    2.7163   -2.8345 C   0  0  0  0  0  0  0  0  0  0  0  0
   17.1731    2.8314   -3.0367 H   0  0  0  0  0  0  0  0  0  0  0  0
   15.5547    2.8666   -3.7657 H   0  0  0  0  0  0  0  0  0  0  0  0
   15.5853    3.5383   -1.6361 C   0  0  0  0  0  0  0  0  0  0  0  0
   16.3718    4.1172   -1.1261 H   0  0  0  0  0  0  0  0  0  0  0  0
   14.7296    4.1852   -1.8855 H   0  0  0  0  0  0  0  0  0  0  0  0
   15.1916    2.2345   -0.9005 C   0  0  0  0  0  0  0  0  0  0  0  0
   14.1186    2.1222   -0.7073 H   0  0  0  0  0  0  0  0  0  0  0  0
   15.7291    2.0536    0.0368 H   0  0  0  0  0  0  0  0  0  0  0  0
   15.3106   -0.8155   -1.4884 C   0  0  0  0  0  0  0  0  0  0  0  0
   14.8826   -0.4731   -0.5531 H   0  0  0  0  0  0  0  0  0  0  0  0
   13.3059   -3.0160   -0.6043 C   0  0  0  0  0  0  0  0  0  0  0  0
   12.4402   -3.1051   -1.4777 O   0  0  0  0  0  0  0  0  0  0  0  0
   13.0264   -2.6739    0.7065 N   0  0  0  0  0  0  0  0  0  0  0  0
   11.7213   -2.3130    1.2684 C   0  0  0  0  0  0  0  0  0  0  0  0
   11.7071   -1.2539    1.5581 H   0  0  0  0  0  0  0  0  0  0  0  0
   10.9187   -2.4777    0.5380 H   0  0  0  0  0  0  0  0  0  0  0  0
   11.5049   -2.9226    2.1558 H   0  0  0  0  0  0  0  0  0  0  0  0
   14.2327   -2.6265    1.3666 C   0  0  0  0  0  0  0  0  0  0  0  0
   14.4031   -2.3188    2.6845 N   0  0  0  0  0  0  0  0  0  0  0  0
   13.5888   -2.1241    3.2664 H   0  0  0  0  0  0  0  0  0  0  0  0
   15.3379   -2.3433    3.0863 H   0  0  0  0  0  0  0  0  0  0  0  0
   15.2383   -2.9065    0.6063 N   0  0  0  0  0  4  0  0  0  0  0  0
   16.2094   -2.9344    0.9307 H   0  0  0  0  0  0  0  0  0  0  0  0
   14.3122   -5.5688   -1.7694 C   0  0  0  0  0  0  0  0  0  0  0  0
   13.3588   -5.2052   -2.1390 H   0  0  0  0  0  0  0  0  0  0  0  0
   14.6467   -6.9212   -1.9641 C   0  0  0  0  0  0  0  0  0  0  0  0
   13.9655   -7.5884   -2.4857 H   0  0  0  0  0  0  0  0  0  0  0  0
  1  2  1  0
  2  3  2  0
  3  4  1  0
  3  5  1  0
  5  6  1  0
  5  7  2  0
  7  8  1  0
  8  9  1  0
  9 10  2  0
 10 11  1  0
 10 12  1  0
 12 13  1  0
 12 14  2  0
 14 15  1  0
 14 16  1  0
 16 17  1  0
 17 18  1  0
 18 19  1  0
 18 20  1  0
 18 21  1  0
 21 22  1  0
 21 23  1  0
 21 24  1  0
 24 25  1  0
 24 26  1  0
 16 27  2  0
 27 28  1  0
  8 29  1  0
 29 30  2  0
 29 31  1  0
 31 32  1  0
 32 33  1  0
 32 34  1  0
 32 35  1  0
 31 36  1  0
 36 37  1  0
 37 38  1  0
 37 39  1  0
 36 40  2  0
 40 41  1  0
  7 42  1  0
 42 43  1  0
 42 44  2  0
 44 45  1  0
 44  2  1  0
 40  8  1  0
 27  9  1  0
 24 17  1  0
M  CHG  1  40   1
M  END
>  <score>  (158) 
5.76017

$$$$

     RDKit          3D

 57 60  0  0  0  0  0  0  0  0999 V2000
   15.6167   -9.1000    3.3115 H   0  0  0  0  0  0  0  0  0  0  0  0
   15.0471   -9.1228    2.3932 C   0  0  0  0  0  0  0  0  0  0  0  0
   13.8289   -8.4481    2.3121 C   0  0  0  0  0  0  0  0  0  0  0  0
   13.4655   -7.8714    3.1577 H   0  0  0  0  0  0  0  0  0  0  0  0
   13.0724   -8.5292    1.1420 C   0  0  0  0  0  0  0  0  0  0  0  0
   12.1142   -8.0289    1.0942 H   0  0  0  0  0  0  0  0  0  0  0  0
   13.5282   -9.2685    0.0414 C   0  0  0  0  0  0  0  0  0  0  0  0
   12.6700   -9.4374   -1.1898 C   0  0  0  0  0  0  0  0  0  0  0  0
   11.6594   -9.7280   -0.8833 H   0  0  0  0  0  0  0  0  0  0  0  0
   13.0670  -10.2573   -1.7982 H   0  0  0  0  0  0  0  0  0  0  0  0
   12.6027   -8.2146   -2.0144 N   0  0  0  0  0  0  0  0  0  0  0  0
   11.7565   -7.1312   -1.4801 C   0  0  0  0  0  0  0  0  0  0  0  0
   10.7785   -7.5290   -1.1871 H   0  0  0  0  0  0  0  0  0  0  0  0
   12.2214   -6.6708   -0.6015 H   0  0  0  0  0  0  0  0  0  0  0  0
   11.6021   -6.3575   -2.2379 H   0  0  0  0  0  0  0  0  0  0  0  0
   13.8591   -7.8282   -2.6987 C   0  0  0  0  0  0  0  0  0  0  0  0
   13.6384   -7.2767   -3.6144 H   0  0  0  0  0  0  0  0  0  0  0  0
   14.4000   -8.7314   -2.9941 H   0  0  0  0  0  0  0  0  0  0  0  0
   14.7558   -6.9458   -1.8738 C   0  0  0  0  0  0  0  0  0  0  0  0
   15.9738   -7.4255   -1.3722 C   0  0  0  0  0  0  0  0  0  0  0  0
   16.2483   -8.4649   -1.5180 H   0  0  0  0  0  0  0  0  0  0  0  0
   16.8484   -6.5658   -0.7044 C   0  0  0  0  0  0  0  0  0  0  0  0
   17.7964   -6.9362   -0.3250 H   0  0  0  0  0  0  0  0  0  0  0  0
   16.5058   -5.2247   -0.5233 C   0  0  0  0  0  0  0  0  0  0  0  0
   17.1887   -4.5616   -0.0007 H   0  0  0  0  0  0  0  0  0  0  0  0
   15.2782   -4.7284   -0.9839 C   0  0  0  0  0  0  0  0  0  0  0  0
   14.8924   -3.2817   -0.7108 C   0  0  0  0  0  0  0  0  0  0  0  0
   15.3840   -2.2930   -1.7650 C   0  0  0  0  0  0  0  0  0  0  0  0
   15.9236   -2.6932   -3.0032 C   0  0  0  0  0  0  0  0  0  0  0  0
   15.9780   -3.7488   -3.2530 H   0  0  0  0  0  0  0  0  0  0  0  0
   16.4064   -1.7422   -3.9157 C   0  0  0  0  0  0  0  0  0  0  0  0
   16.8421   -2.0576   -4.8572 H   0  0  0  0  0  0  0  0  0  0  0  0
   16.3428   -0.3795   -3.6131 C   0  0  0  0  0  0  0  0  0  0  0  0
   16.7362    0.3553   -4.3108 H   0  0  0  0  0  0  0  0  0  0  0  0
   15.7846    0.0291   -2.4002 C   0  0  0  0  0  0  0  0  0  0  0  0
   15.7348    1.0837   -2.1526 H   0  0  0  0  0  0  0  0  0  0  0  0
   15.2973   -0.9170   -1.4942 C   0  0  0  0  0  0  0  0  0  0  0  0
   14.8585   -0.5803   -0.5585 H   0  0  0  0  0  0  0  0  0  0  0  0
   13.3760   -3.1274   -0.4810 C   0  0  0  0  0  0  0  0  0  0  0  0
   12.4605   -3.3386   -1.2773 O   0  0  0  0  0  0  0  0  0  0  0  0
   13.1655   -2.6757    0.8054 N   0  0  0  0  0  0  0  0  0  0  0  0
   11.8949   -2.2778    1.4020 C   0  0  0  0  0  0  0  0  0  0  0  0
   11.0475   -2.7516    0.8940 H   0  0  0  0  0  0  0  0  0  0  0  0
   11.7747   -1.1916    1.3419 H   0  0  0  0  0  0  0  0  0  0  0  0
   11.8681   -2.5674    2.4593 H   0  0  0  0  0  0  0  0  0  0  0  0
   14.3910   -2.5454    1.4154 C   0  0  0  0  0  0  0  0  0  0  0  0
   14.5441   -2.1011    2.6953 N   0  0  0  0  0  0  0  0  0  0  0  0
   15.4619   -2.1862    3.1298 H   0  0  0  0  0  0  0  0  0  0  0  0
   13.7225   -2.1625    3.2970 H   0  0  0  0  0  0  0  0  0  0  0  0
   15.3627   -2.8761    0.6367 N   0  0  0  0  0  4  0  0  0  0  0  0
   16.3522   -2.7767    0.8834 H   0  0  0  0  0  0  0  0  0  0  0  0
   14.4146   -5.5991   -1.6704 C   0  0  0  0  0  0  0  0  0  0  0  0
   13.4671   -5.2248   -2.0494 H   0  0  0  0  0  0  0  0  0  0  0  0
   14.7719   -9.9096    0.1313 C   0  0  0  0  0  0  0  0  0  0  0  0
   15.1453  -10.4895   -0.7022 H   0  0  0  0  0  0  0  0  0  0  0  0
   15.5300   -9.8399    1.3002 C   0  0  0  0  0  0  0  0  0  0  0  0
   16.4851  -10.3518    1.3705 H   0  0  0  0  0  0  0  0  0  0  0  0
  1  2  1  0
  2  3  2  0
  3  4  1  0
  3  5  1  0
  5  6  1  0
  5  7  2  0
  7  8  1  0
  8  9  1  0
  8 10  1  0
  8 11  1  0
 11 12  1  0
 12 13  1  0
 12 14  1  0
 12 15  1  0
 11 16  1  0
 16 17  1  0
 16 18  1  0
 16 19  1  0
 19 20  2  0
 20 21  1  0
 20 22  1  0
 22 23  1  0
 22 24  2  0
 24 25  1  0
 24 26  1  0
 26 27  1  0
 27 28  1  0
 28 29  2  0
 29 30  1  0
 29 31  1  0
 31 32  1  0
 31 33  2  0
 33 34  1  0
 33 35  1  0
 35 36  1  0
 35 37  2  0
 37 38  1  0
 27 39  1  0
 39 40  2  0
 39 41  1  0
 41 42  1  0
 42 43  1  0
 42 44  1  0
 42 45  1  0
 41 46  1  0
 46 47  1  0
 47 48  1  0
 47 49  1  0
 46 50  2  0
 50 51  1  0
 26 52  2  0
 52 53  1  0
  7 54  1  0
 54 55  1  0
 54 56  2  0
 56 57  1  0
 56  2  1  0
 52 19  1  0
 50 27  1  0
 37 28  1  0
M  CHG  1  50   1
M  END
>  <score>  (159) 
5.7582

$$$$

     RDKit          3D

 40 42  0  0  0  0  0  0  0  0999 V2000
   16.0920   -8.3957   -1.6385 H   0  0  0  0  0  0  0  0  0  0  0  0
   15.8549   -7.3474   -1.4828 C   0  0  0  0  0  0  0  0  0  0  0  0
   16.7515   -6.5210   -0.7971 C   0  0  0  0  0  0  0  0  0  0  0  0
   17.6890   -6.9209   -0.4227 H   0  0  0  0  0  0  0  0  0  0  0  0
   16.4378   -5.1761   -0.5808 C   0  0  0  0  0  0  0  0  0  0  0  0
   17.1400   -4.5397   -0.0485 H   0  0  0  0  0  0  0  0  0  0  0  0
   15.2189   -4.6453   -1.0318 C   0  0  0  0  0  0  0  0  0  0  0  0
   14.8483   -3.1989   -0.7542 C   0  0  0  0  0  0  0  0  0  0  0  0
   15.3577   -2.2380   -1.8130 C   0  0  0  0  0  0  0  0  0  0  0  0
   15.9938   -2.6762   -2.9874 C   0  0  0  0  0  0  0  0  0  0  0  0
   16.1375   -3.7424   -3.1502 H   0  0  0  0  0  0  0  0  0  0  0  0
   16.4107   -1.7514   -3.9564 C   0  0  0  0  0  0  0  0  0  0  0  0
   16.9066   -2.1008   -4.8553 H   0  0  0  0  0  0  0  0  0  0  0  0
   16.1546   -0.3835   -3.7823 C   0  0  0  0  0  0  0  0  0  0  0  0
   16.4596    0.3307   -4.5426 H   0  0  0  0  0  0  0  0  0  0  0  0
   15.4831    0.0496   -2.6320 C   0  0  0  0  0  0  0  0  0  0  0  0
   15.0372    1.7234   -2.3479 S   0  0  0  0  0  0  0  0  0  0  0  0
   16.4717    2.1878   -1.2955 C   0  0  0  0  0  0  0  0  0  0  0  0
   16.4201    1.5937   -0.0643 F   0  0  0  0  0  0  0  0  0  0  0  0
   16.4651    3.5410   -1.1643 F   0  0  0  0  0  0  0  0  0  0  0  0
   17.6103    1.8142   -1.9251 F   0  0  0  0  0  0  0  0  0  0  0  0
   15.1093   -0.8676   -1.6614 C   0  0  0  0  0  0  0  0  0  0  0  0
   14.5961   -0.4825   -0.7857 H   0  0  0  0  0  0  0  0  0  0  0  0
   13.3301   -3.0144   -0.5675 C   0  0  0  0  0  0  0  0  0  0  0  0
   12.4482   -3.1689   -1.4130 O   0  0  0  0  0  0  0  0  0  0  0  0
   13.0682   -2.6306    0.7301 N   0  0  0  0  0  0  0  0  0  0  0  0
   11.7595   -2.3003    1.2953 C   0  0  0  0  0  0  0  0  0  0  0  0
   11.5493   -2.9127    2.1797 H   0  0  0  0  0  0  0  0  0  0  0  0
   10.9629   -2.4806    0.5636 H   0  0  0  0  0  0  0  0  0  0  0  0
   11.7200   -1.2438    1.5843 H   0  0  0  0  0  0  0  0  0  0  0  0
   14.2796   -2.5591    1.3832 C   0  0  0  0  0  0  0  0  0  0  0  0
   14.4480   -2.2892    2.7110 N   0  0  0  0  0  0  0  0  0  0  0  0
   15.3893   -2.2707    3.1019 H   0  0  0  0  0  0  0  0  0  0  0  0
   13.6369   -2.1120    3.3002 H   0  0  0  0  0  0  0  0  0  0  0  0
   15.2798   -2.8075    0.6055 N   0  0  0  0  0  4  0  0  0  0  0  0
   16.2352   -2.9290    0.9455 H   0  0  0  0  0  0  0  0  0  0  0  0
   14.3362   -5.4787   -1.7399 C   0  0  0  0  0  0  0  0  0  0  0  0
   13.3956   -5.0828   -2.1123 H   0  0  0  0  0  0  0  0  0  0  0  0
   14.6485   -6.8238   -1.9586 C   0  0  0  0  0  0  0  0  0  0  0  0
   13.9502   -7.4612   -2.4925 H   0  0  0  0  0  0  0  0  0  0  0  0
  1  2  1  0
  2  3  2  0
  3  4  1  0
  3  5  1  0
  5  6  1  0
  5  7  2  0
  7  8  1  0
  8  9  1  0
  9 10  2  0
 10 11  1  0
 10 12  1  0
 12 13  1  0
 12 14  2  0
 14 15  1  0
 14 16  1  0
 16 17  1  0
 17 18  1  0
 18 19  1  0
 18 20  1  0
 18 21  1  0
 16 22  2  0
 22 23  1  0
  8 24  1  0
 24 25  2  0
 24 26  1  0
 26 27  1  0
 27 28  1  0
 27 29  1  0
 27 30  1  0
 26 31  1  0
 31 32  1  0
 32 33  1  0
 32 34  1  0
 31 35  2  0
 35 36  1  0
  7 37  1  0
 37 38  1  0
 37 39  2  0
 39 40  1  0
 39  2  1  0
 35  8  1  0
 22  9  1  0
M  CHG  1  35   1
M  END
>  <score>  (160) 
5.75309

$$$$

     RDKit          3D

 46 49  0  0  0  0  0  0  0  0999 V2000
   16.0872   -8.4277   -1.6584 H   0  0  0  0  0  0  0  0  0  0  0  0
   15.8491   -7.3772   -1.5162 C   0  0  0  0  0  0  0  0  0  0  0  0
   16.7538   -6.5515   -0.8370 C   0  0  0  0  0  0  0  0  0  0  0  0
   17.6837   -6.9438   -0.4343 H   0  0  0  0  0  0  0  0  0  0  0  0
   16.4447   -5.2076   -0.6367 C   0  0  0  0  0  0  0  0  0  0  0  0
   17.1339   -4.5671   -0.0925 H   0  0  0  0  0  0  0  0  0  0  0  0
   15.2259   -4.6782   -1.0747 C   0  0  0  0  0  0  0  0  0  0  0  0
   14.8814   -3.2447   -0.7484 C   0  0  0  0  0  0  0  0  0  0  0  0
   15.4059   -2.2527   -1.7718 C   0  0  0  0  0  0  0  0  0  0  0  0
   15.9661   -2.6549   -2.9966 C   0  0  0  0  0  0  0  0  0  0  0  0
   16.0210   -3.7087   -3.2512 H   0  0  0  0  0  0  0  0  0  0  0  0
   16.4620   -1.7063   -3.8974 C   0  0  0  0  0  0  0  0  0  0  0  0
   16.8995   -2.0157   -4.8417 H   0  0  0  0  0  0  0  0  0  0  0  0
   16.4008   -0.3455   -3.5836 C   0  0  0  0  0  0  0  0  0  0  0  0
   16.7943    0.3896   -4.2796 H   0  0  0  0  0  0  0  0  0  0  0  0
   15.7961    0.0809   -2.3924 C   0  0  0  0  0  0  0  0  0  0  0  0
   15.6917    1.5061   -2.0650 C   0  0  0  0  0  0  0  0  0  0  0  0
   16.7023    2.3953   -2.4468 C   0  0  0  0  0  0  0  0  0  0  0  0
   17.5728    2.0088   -2.9682 H   0  0  0  0  0  0  0  0  0  0  0  0
   16.6052    3.7534   -2.1304 C   0  0  0  0  0  0  0  0  0  0  0  0
   17.4029    4.4313   -2.4133 H   0  0  0  0  0  0  0  0  0  0  0  0
   15.4857    4.2378   -1.4418 C   0  0  0  0  0  0  0  0  0  0  0  0
   15.3594    5.9351   -1.0604 Cl  0  0  0  0  0  0  0  0  0  0  0  0
   14.4692    3.3539   -1.0566 C   0  0  0  0  0  0  0  0  0  0  0  0
   13.0568    3.9233   -0.2006 Cl  0  0  0  0  0  0  0  0  0  0  0  0
   14.5836    1.9954   -1.3584 C   0  0  0  0  0  0  0  0  0  0  0  0
   13.7980    1.3124   -1.0510 H   0  0  0  0  0  0  0  0  0  0  0  0
   15.2918   -0.8797   -1.5090 C   0  0  0  0  0  0  0  0  0  0  0  0
   14.8248   -0.5488   -0.5859 H   0  0  0  0  0  0  0  0  0  0  0  0
   13.3766   -3.0136   -0.5195 C   0  0  0  0  0  0  0  0  0  0  0  0
   12.4531   -3.1571   -1.3218 O   0  0  0  0  0  0  0  0  0  0  0  0
   13.1854   -2.5985    0.7782 N   0  0  0  0  0  0  0  0  0  0  0  0
   11.9057   -2.3178    1.4158 C   0  0  0  0  0  0  0  0  0  0  0  0
   11.2728   -1.7480    0.7243 H   0  0  0  0  0  0  0  0  0  0  0  0
   11.4000   -3.2522    1.6907 H   0  0  0  0  0  0  0  0  0  0  0  0
   12.0420   -1.7187    2.3232 H   0  0  0  0  0  0  0  0  0  0  0  0
   14.4017   -2.6507    1.4093 C   0  0  0  0  0  0  0  0  0  0  0  0
   14.5696   -2.4558    2.7437 N   0  0  0  0  0  0  0  0  0  0  0  0
   13.8632   -1.9030    3.2369 H   0  0  0  0  0  0  0  0  0  0  0  0
   15.5263   -2.4261    3.0853 H   0  0  0  0  0  0  0  0  0  0  0  0
   15.3752   -2.9487    0.6182 N   0  0  0  0  0  4  0  0  0  0  0  0
   16.2899   -3.2459    0.9731 H   0  0  0  0  0  0  0  0  0  0  0  0
   14.3319   -5.5024   -1.7732 C   0  0  0  0  0  0  0  0  0  0  0  0
   13.3842   -5.1010   -2.1162 H   0  0  0  0  0  0  0  0  0  0  0  0
   14.6407   -6.8496   -1.9938 C   0  0  0  0  0  0  0  0  0  0  0  0
   13.9243   -7.4898   -2.5026 H   0  0  0  0  0  0  0  0  0  0  0  0
  1  2  1  0
  2  3  2  0
  3  4  1  0
  3  5  1  0
  5  6  1  0
  5  7  2  0
  7  8  1  0
  8  9  1  0
  9 10  2  0
 10 11  1  0
 10 12  1  0
 12 13  1  0
 12 14  2  0
 14 15  1  0
 14 16  1  0
 16 17  1  0
 17 18  2  0
 18 19  1  0
 18 20  1  0
 20 21  1  0
 20 22  2  0
 22 23  1  0
 22 24  1  0
 24 25  1  0
 24 26  2  0
 26 27  1  0
 16 28  2  0
 28 29  1  0
  8 30  1  0
 30 31  2  0
 30 32  1  0
 32 33  1  0
 33 34  1  0
 33 35  1  0
 33 36  1  0
 32 37  1  0
 37 38  1  0
 38 39  1  0
 38 40  1  0
 37 41  2  0
 41 42  1  0
  7 43  1  0
 43 44  1  0
 43 45  2  0
 45 46  1  0
 45  2  1  0
 41  8  1  0
 28  9  1  0
 26 17  1  0
M  CHG  1  41   1
M  END
>  <score>  (161) 
5.75287

$$$$

     RDKit          3D

 48 51  0  0  0  0  0  0  0  0999 V2000
   16.0547   -8.2488   -1.6043 H   0  0  0  0  0  0  0  0  0  0  0  0
   15.8347   -7.1949   -1.4712 C   0  0  0  0  0  0  0  0  0  0  0  0
   16.7461   -6.3678   -0.8093 C   0  0  0  0  0  0  0  0  0  0  0  0
   17.6750   -6.7721   -0.4227 H   0  0  0  0  0  0  0  0  0  0  0  0
   16.4574   -5.0128   -0.6250 C   0  0  0  0  0  0  0  0  0  0  0  0
   17.1609   -4.3774   -0.0925 H   0  0  0  0  0  0  0  0  0  0  0  0
   15.2443   -4.4721   -1.0832 C   0  0  0  0  0  0  0  0  0  0  0  0
   14.8734   -3.0221   -0.7868 C   0  0  0  0  0  0  0  0  0  0  0  0
   15.3707   -2.0333   -1.8455 C   0  0  0  0  0  0  0  0  0  0  0  0
   15.9729   -2.4508   -3.0511 C   0  0  0  0  0  0  0  0  0  0  0  0
   16.1616   -3.5056   -3.2157 H   0  0  0  0  0  0  0  0  0  0  0  0
   16.3287   -1.5264   -4.0497 C   0  0  0  0  0  0  0  0  0  0  0  0
   16.7790   -1.8602   -4.9847 H   0  0  0  0  0  0  0  0  0  0  0  0
   16.1165   -0.1617   -3.8341 C   0  0  0  0  0  0  0  0  0  0  0  0
   16.4022    0.5785   -4.5748 H   0  0  0  0  0  0  0  0  0  0  0  0
   15.5582    0.2746   -2.6360 C   0  0  0  0  0  0  0  0  0  0  0  0
   15.4314    1.6261   -2.3647 N   0  0  0  0  0  0  0  0  0  0  0  0
   15.6050    1.9123   -1.4047 H   0  0  0  0  0  0  0  0  0  0  0  0
   14.8006    2.5670   -3.1646 C   0  0  0  0  0  0  0  0  0  0  0  0
   13.9872    2.2462   -4.2620 C   0  0  0  0  0  0  0  0  0  0  0  0
   13.8929    1.2030   -4.5497 H   0  0  0  0  0  0  0  0  0  0  0  0
   13.2985    3.2665   -4.9477 C   0  0  0  0  0  0  0  0  0  0  0  0
   12.6417    3.0533   -5.7886 H   0  0  0  0  0  0  0  0  0  0  0  0
   13.4665    4.6016   -4.5540 C   0  0  0  0  0  0  0  0  0  0  0  0
   12.8562    5.5941   -5.2395 F   0  0  0  0  0  0  0  0  0  0  0  0
   14.3267    4.9137   -3.4939 C   0  0  0  0  0  0  0  0  0  0  0  0
   14.5462    5.9461   -3.2593 H   0  0  0  0  0  0  0  0  0  0  0  0
   14.9733    3.8935   -2.7894 C   0  0  0  0  0  0  0  0  0  0  0  0
   15.6613    4.1043   -1.9742 H   0  0  0  0  0  0  0  0  0  0  0  0
   15.1727   -0.6527   -1.6665 C   0  0  0  0  0  0  0  0  0  0  0  0
   14.6920   -0.2756   -0.7704 H   0  0  0  0  0  0  0  0  0  0  0  0
   13.3536   -2.8516   -0.5888 C   0  0  0  0  0  0  0  0  0  0  0  0
   12.4675   -3.0600   -1.4153 O   0  0  0  0  0  0  0  0  0  0  0  0
   13.0865   -2.5369    0.7284 N   0  0  0  0  0  0  0  0  0  0  0  0
   11.7675   -2.2828    1.3122 C   0  0  0  0  0  0  0  0  0  0  0  0
   10.9707   -2.4854    0.5870 H   0  0  0  0  0  0  0  0  0  0  0  0
   11.5949   -2.9196    2.1864 H   0  0  0  0  0  0  0  0  0  0  0  0
   11.6821   -1.2359    1.6220 H   0  0  0  0  0  0  0  0  0  0  0  0
   14.2961   -2.5122    1.3862 C   0  0  0  0  0  0  0  0  0  0  0  0
   14.4568   -2.3840    2.7358 N   0  0  0  0  0  0  0  0  0  0  0  0
   13.6554   -2.0908    3.2915 H   0  0  0  0  0  0  0  0  0  0  0  0
   15.3983   -2.2136    3.0875 H   0  0  0  0  0  0  0  0  0  0  0  0
   15.3037   -2.6718    0.5878 N   0  0  0  0  0  4  0  0  0  0  0  0
   16.2541   -2.8264    0.9292 H   0  0  0  0  0  0  0  0  0  0  0  0
   14.3544   -5.3039   -1.7852 C   0  0  0  0  0  0  0  0  0  0  0  0
   13.4186   -4.9001   -2.1626 H   0  0  0  0  0  0  0  0  0  0  0  0
   14.6445   -6.6586   -1.9691 C   0  0  0  0  0  0  0  0  0  0  0  0
   13.9358   -7.2931   -2.4889 H   0  0  0  0  0  0  0  0  0  0  0  0
  1  2  1  0
  2  3  2  0
  3  4  1  0
  3  5  1  0
  5  6  1  0
  5  7  2  0
  7  8  1  0
  8  9  1  0
  9 10  2  0
 10 11  1  0
 10 12  1  0
 12 13  1  0
 12 14  2  0
 14 15  1  0
 14 16  1  0
 16 17  1  0
 17 18  1  0
 17 19  1  0
 19 20  2  0
 20 21  1  0
 20 22  1  0
 22 23  1  0
 22 24  2  0
 24 25  1  0
 24 26  1  0
 26 27  1  0
 26 28  2  0
 28 29  1  0
 16 30  2  0
 30 31  1  0
  8 32  1  0
 32 33  2  0
 32 34  1  0
 34 35  1  0
 35 36  1  0
 35 37  1  0
 35 38  1  0
 34 39  1  0
 39 40  1  0
 40 41  1  0
 40 42  1  0
 39 43  2  0
 43 44  1  0
  7 45  1  0
 45 46  1  0
 45 47  2  0
 47 48  1  0
 47  2  1  0
 43  8  1  0
 30  9  1  0
 28 19  1  0
M  CHG  1  43   1
M  END
>  <score>  (162) 
5.74372

$$$$

     RDKit          3D

 54 57  0  0  0  0  0  0  0  0999 V2000
   16.0855   -8.4217   -1.6375 H   0  0  0  0  0  0  0  0  0  0  0  0
   15.8559   -7.3702   -1.4945 C   0  0  0  0  0  0  0  0  0  0  0  0
   16.7535   -6.5464   -0.8061 C   0  0  0  0  0  0  0  0  0  0  0  0
   17.6816   -6.9499   -0.4103 H   0  0  0  0  0  0  0  0  0  0  0  0
   16.4402   -5.1999   -0.5955 C   0  0  0  0  0  0  0  0  0  0  0  0
   17.1230   -4.5579   -0.0459 H   0  0  0  0  0  0  0  0  0  0  0  0
   15.2231   -4.6676   -1.0467 C   0  0  0  0  0  0  0  0  0  0  0  0
   14.8458   -3.2278   -0.7384 C   0  0  0  0  0  0  0  0  0  0  0  0
   15.3859   -2.2065   -1.7327 C   0  0  0  0  0  0  0  0  0  0  0  0
   15.9274   -2.6205   -2.9595 C   0  0  0  0  0  0  0  0  0  0  0  0
   15.9825   -3.6799   -3.1953 H   0  0  0  0  0  0  0  0  0  0  0  0
   16.4004   -1.6810   -3.8795 C   0  0  0  0  0  0  0  0  0  0  0  0
   16.8235   -2.0059   -4.8256 H   0  0  0  0  0  0  0  0  0  0  0  0
   16.3309   -0.3166   -3.5848 C   0  0  0  0  0  0  0  0  0  0  0  0
   16.7155    0.4106   -4.2924 H   0  0  0  0  0  0  0  0  0  0  0  0
   15.7601    0.1408   -2.3890 C   0  0  0  0  0  0  0  0  0  0  0  0
   15.6784    1.6491   -2.1490 C   0  0  0  0  0  0  0  0  0  0  0  0
   16.0710    2.1622   -3.0360 H   0  0  0  0  0  0  0  0  0  0  0  0
   16.5180    2.0724   -0.9356 C   0  0  0  0  0  0  0  0  0  0  0  0
   16.1476    1.5408   -0.0534 H   0  0  0  0  0  0  0  0  0  0  0  0
   17.5556    1.7976   -1.1076 H   0  0  0  0  0  0  0  0  0  0  0  0
   16.4590    3.5816   -0.6574 C   0  0  0  0  0  0  0  0  0  0  0  0
   17.0008    4.1390   -1.4317 H   0  0  0  0  0  0  0  0  0  0  0  0
   16.9549    3.7889    0.2984 H   0  0  0  0  0  0  0  0  0  0  0  0
   15.0552    4.0220   -0.5688 N   0  0  0  0  0  0  0  0  0  0  0  0
   14.4690    3.8025    0.7529 C   0  0  0  0  0  0  0  0  0  0  0  0
   14.4364    2.7435    0.9605 H   0  0  0  0  0  0  0  0  0  0  0  0
   15.0882    4.2785    1.5175 H   0  0  0  0  0  0  0  0  0  0  0  0
   13.4538    4.2022    0.7889 H   0  0  0  0  0  0  0  0  0  0  0  0
   14.1868    3.6520   -1.7025 C   0  0  0  0  0  0  0  0  0  0  0  0
   13.1582    3.9624   -1.4853 H   0  0  0  0  0  0  0  0  0  0  0  0
   14.4964    4.1750   -2.6158 H   0  0  0  0  0  0  0  0  0  0  0  0
   14.2364    2.1312   -1.9216 C   0  0  0  0  0  0  0  0  0  0  0  0
   13.8228    1.6307   -1.0396 H   0  0  0  0  0  0  0  0  0  0  0  0
   13.6194    1.8731   -2.7852 H   0  0  0  0  0  0  0  0  0  0  0  0
   15.2915   -0.8204   -1.4672 C   0  0  0  0  0  0  0  0  0  0  0  0
   14.8514   -0.4925   -0.5288 H   0  0  0  0  0  0  0  0  0  0  0  0
   13.3265   -3.0498   -0.5731 C   0  0  0  0  0  0  0  0  0  0  0  0
   12.4602   -3.2051   -1.4362 O   0  0  0  0  0  0  0  0  0  0  0  0
   13.0510   -2.6873    0.7309 N   0  0  0  0  0  0  0  0  0  0  0  0
   11.7493   -2.3166    1.2861 C   0  0  0  0  0  0  0  0  0  0  0  0
   11.7409   -1.2571    1.5616 H   0  0  0  0  0  0  0  0  0  0  0  0
   10.9454   -2.4830    0.5613 H   0  0  0  0  0  0  0  0  0  0  0  0
   11.5150   -2.9053    2.1802 H   0  0  0  0  0  0  0  0  0  0  0  0
   14.2614   -2.6038    1.3858 C   0  0  0  0  0  0  0  0  0  0  0  0
   14.4422   -2.2351    2.6843 N   0  0  0  0  0  0  0  0  0  0  0  0
   15.3770   -2.2966    3.0819 H   0  0  0  0  0  0  0  0  0  0  0  0
   13.6268   -2.1203    3.2834 H   0  0  0  0  0  0  0  0  0  0  0  0
   15.2636   -2.9085    0.6387 N   0  0  0  0  0  4  0  0  0  0  0  0
   16.2225   -3.0140    0.9792 H   0  0  0  0  0  0  0  0  0  0  0  0
   14.3355   -5.5005   -1.7465 C   0  0  0  0  0  0  0  0  0  0  0  0
   13.3819   -5.1060   -2.0859 H   0  0  0  0  0  0  0  0  0  0  0  0
   14.6511   -6.8446   -1.9734 C   0  0  0  0  0  0  0  0  0  0  0  0
   13.9466   -7.4889   -2.4905 H   0  0  0  0  0  0  0  0  0  0  0  0
  1  2  1  0
  2  3  2  0
  3  4  1  0
  3  5  1  0
  5  6  1  0
  5  7  2  0
  7  8  1  0
  8  9  1  0
  9 10  2  0
 10 11  1  0
 10 12  1  0
 12 13  1  0
 12 14  2  0
 14 15  1  0
 14 16  1  0
 16 17  1  0
 17 18  1  0
 17 19  1  0
 19 20  1  0
 19 21  1  0
 19 22  1  0
 22 23  1  0
 22 24  1  0
 22 25  1  0
 25 26  1  0
 26 27  1  0
 26 28  1  0
 26 29  1  0
 25 30  1  0
 30 31  1  0
 30 32  1  0
 30 33  1  0
 33 34  1  0
 33 35  1  0
 16 36  2  0
 36 37  1  0
  8 38  1  0
 38 39  2  0
 38 40  1  0
 40 41  1  0
 41 42  1  0
 41 43  1  0
 41 44  1  0
 40 45  1  0
 45 46  1  0
 46 47  1  0
 46 48  1  0
 45 49  2  0
 49 50  1  0
  7 51  1  0
 51 52  1  0
 51 53  2  0
 53 54  1  0
 53  2  1  0
 49  8  1  0
 36  9  1  0
 33 17  1  0
M  CHG  1  49   1
M  END
>  <score>  (163) 
5.74122

$$$$

     RDKit          3D

 46 49  0  0  0  0  0  0  0  0999 V2000
   16.1285   -8.4917   -1.6107 H   0  0  0  0  0  0  0  0  0  0  0  0
   15.8549   -7.4490   -1.4679 C   0  0  0  0  0  0  0  0  0  0  0  0
   16.7257   -6.5896   -0.7961 C   0  0  0  0  0  0  0  0  0  0  0  0
   17.6775   -6.9546   -0.4212 H   0  0  0  0  0  0  0  0  0  0  0  0
   16.3808   -5.2474   -0.6056 C   0  0  0  0  0  0  0  0  0  0  0  0
   17.0716   -4.6006   -0.0737 H   0  0  0  0  0  0  0  0  0  0  0  0
   15.1600   -4.7250   -1.0698 C   0  0  0  0  0  0  0  0  0  0  0  0
   14.8045   -3.2544   -0.7870 C   0  0  0  0  0  0  0  0  0  0  0  0
   15.3873   -2.2536   -1.7869 C   0  0  0  0  0  0  0  0  0  0  0  0
   15.9450   -2.6444   -3.0156 C   0  0  0  0  0  0  0  0  0  0  0  0
   16.0094   -3.6961   -3.2760 H   0  0  0  0  0  0  0  0  0  0  0  0
   16.4239   -1.6890   -3.9215 C   0  0  0  0  0  0  0  0  0  0  0  0
   16.8594   -2.0075   -4.8627 H   0  0  0  0  0  0  0  0  0  0  0  0
   16.3434   -0.3245   -3.6246 C   0  0  0  0  0  0  0  0  0  0  0  0
   16.7078    0.3937   -4.3552 H   0  0  0  0  0  0  0  0  0  0  0  0
   15.7915    0.1002   -2.4018 C   0  0  0  0  0  0  0  0  0  0  0  0
   15.6892    1.5303   -2.0415 C   0  0  0  0  0  0  0  0  0  0  0  0
   15.1864    1.9725   -0.9066 N   0  0  0  0  0  0  0  0  0  0  0  0
   15.2601    3.3330   -0.9519 N   0  0  0  0  0  0  0  0  0  0  0  0
   14.7452    4.2174    0.1003 C   0  0  0  0  0  0  0  0  0  0  0  0
   14.7193    3.6904    1.0564 H   0  0  0  0  0  0  0  0  0  0  0  0
   15.3819    5.1002    0.2130 H   0  0  0  0  0  0  0  0  0  0  0  0
   13.7324    4.5441   -0.1471 H   0  0  0  0  0  0  0  0  0  0  0  0
   15.8092    3.7822   -2.1429 C   0  0  0  0  0  0  0  0  0  0  0  0
   15.9618    4.8215   -2.4308 H   0  0  0  0  0  0  0  0  0  0  0  0
   16.1000    2.6599   -2.8637 C   0  0  0  0  0  0  0  0  0  0  0  0
   16.5410    2.6081   -3.8545 H   0  0  0  0  0  0  0  0  0  0  0  0
   15.3218   -0.8764   -1.5051 C   0  0  0  0  0  0  0  0  0  0  0  0
   14.8975   -0.5427   -0.5615 H   0  0  0  0  0  0  0  0  0  0  0  0
   13.2901   -3.0163   -0.6125 C   0  0  0  0  0  0  0  0  0  0  0  0
   12.4194   -3.0766   -1.4817 O   0  0  0  0  0  0  0  0  0  0  0  0
   13.0190   -2.6672    0.6973 N   0  0  0  0  0  0  0  0  0  0  0  0
   11.7182   -2.3123    1.2625 C   0  0  0  0  0  0  0  0  0  0  0  0
   11.6931   -1.2588    1.5588 H   0  0  0  0  0  0  0  0  0  0  0  0
   11.5007   -2.9214    2.1452 H   0  0  0  0  0  0  0  0  0  0  0  0
   10.9162   -2.4768    0.5363 H   0  0  0  0  0  0  0  0  0  0  0  0
   14.2229   -2.6316    1.3656 C   0  0  0  0  0  0  0  0  0  0  0  0
   14.3887   -2.3421    2.6914 N   0  0  0  0  0  0  0  0  0  0  0  0
   15.3240   -2.3593    3.0975 H   0  0  0  0  0  0  0  0  0  0  0  0
   13.5789   -2.1263    3.2688 H   0  0  0  0  0  0  0  0  0  0  0  0
   15.2176   -2.9083    0.5918 N   0  0  0  0  0  4  0  0  0  0  0  0
   16.1928   -2.8901    0.8949 H   0  0  0  0  0  0  0  0  0  0  0  0
   14.2977   -5.6022   -1.7691 C   0  0  0  0  0  0  0  0  0  0  0  0
   13.3521   -5.2535   -2.1750 H   0  0  0  0  0  0  0  0  0  0  0  0
   14.6428   -6.9532   -1.9593 C   0  0  0  0  0  0  0  0  0  0  0  0
   13.9732   -7.6254   -2.4894 H   0  0  0  0  0  0  0  0  0  0  0  0
  1  2  1  0
  2  3  2  0
  3  4  1  0
  3  5  1  0
  5  6  1  0
  5  7  2  0
  7  8  1  0
  8  9  1  0
  9 10  2  0
 10 11  1  0
 10 12  1  0
 12 13  1  0
 12 14  2  0
 14 15  1  0
 14 16  1  0
 16 17  1  0
 17 18  2  0
 18 19  1  0
 19 20  1  0
 20 21  1  0
 20 22  1  0
 20 23  1  0
 19 24  1  0
 24 25  1  0
 24 26  2  0
 26 27  1  0
 16 28  2  0
 28 29  1  0
  8 30  1  0
 30 31  2  0
 30 32  1  0
 32 33  1  0
 33 34  1  0
 33 35  1  0
 33 36  1  0
 32 37  1  0
 37 38  1  0
 38 39  1  0
 38 40  1  0
 37 41  2  0
 41 42  1  0
  7 43  1  0
 43 44  1  0
 43 45  2  0
 45 46  1  0
 45  2  1  0
 41  8  1  0
 28  9  1  0
 26 17  1  0
M  CHG  1  41   1
M  END
>  <score>  (164) 
5.74109

$$$$

     RDKit          3D

 48 51  0  0  0  0  0  0  0  0999 V2000
   13.3009  -11.2204   -5.0065 H   0  0  0  0  0  0  0  0  0  0  0  0
   13.5679  -11.5438   -4.1325 O   0  0  0  0  0  0  0  0  0  0  0  0
   13.4736  -10.5149   -3.2339 C   0  0  0  0  0  0  0  0  0  0  0  0
   13.3588  -10.7581   -1.8656 C   0  0  0  0  0  0  0  0  0  0  0  0
   13.2921  -11.7684   -1.4925 H   0  0  0  0  0  0  0  0  0  0  0  0
   13.3215   -9.6920   -0.9613 C   0  0  0  0  0  0  0  0  0  0  0  0
   13.1942   -9.8821    0.0981 H   0  0  0  0  0  0  0  0  0  0  0  0
   13.4784   -8.3766   -1.4002 C   0  0  0  0  0  0  0  0  0  0  0  0
   13.4670   -7.3547   -0.4911 O   0  0  0  0  0  0  0  0  0  0  0  0
   14.5199   -6.4793   -0.5865 C   0  0  0  0  0  0  0  0  0  0  0  0
   15.8435   -6.9315   -0.7114 C   0  0  0  0  0  0  0  0  0  0  0  0
   16.0344   -7.9994   -0.7757 H   0  0  0  0  0  0  0  0  0  0  0  0
   16.9020   -6.0125   -0.7182 C   0  0  0  0  0  0  0  0  0  0  0  0
   17.9305   -6.3567   -0.7860 H   0  0  0  0  0  0  0  0  0  0  0  0
   16.6400   -4.6425   -0.6208 C   0  0  0  0  0  0  0  0  0  0  0  0
   17.4608   -3.9305   -0.5935 H   0  0  0  0  0  0  0  0  0  0  0  0
   15.3236   -4.1720   -0.5228 C   0  0  0  0  0  0  0  0  0  0  0  0
   15.0505   -2.6826   -0.4032 C   0  0  0  0  0  0  0  0  0  0  0  0
   15.6502   -1.8344   -1.5186 C   0  0  0  0  0  0  0  0  0  0  0  0
   16.1100   -2.4167   -2.7141 C   0  0  0  0  0  0  0  0  0  0  0  0
   16.1215   -3.4978   -2.8170 H   0  0  0  0  0  0  0  0  0  0  0  0
   16.5295   -1.6155   -3.7834 C   0  0  0  0  0  0  0  0  0  0  0  0
   16.8615   -2.0739   -4.7092 H   0  0  0  0  0  0  0  0  0  0  0  0
   16.4993   -0.2241   -3.6699 C   0  0  0  0  0  0  0  0  0  0  0  0
   16.7962    0.3957   -4.5113 H   0  0  0  0  0  0  0  0  0  0  0  0
   16.0824    0.3669   -2.4738 C   0  0  0  0  0  0  0  0  0  0  0  0
   16.0676    1.4475   -2.3794 H   0  0  0  0  0  0  0  0  0  0  0  0
   15.6613   -0.4335   -1.4053 C   0  0  0  0  0  0  0  0  0  0  0  0
   15.3222    0.0364   -0.4847 H   0  0  0  0  0  0  0  0  0  0  0  0
   13.5414   -2.4004   -0.2845 C   0  0  0  0  0  0  0  0  0  0  0  0
   12.6799   -2.5655   -1.1441 O   0  0  0  0  0  0  0  0  0  0  0  0
   13.2585   -2.0419    1.0115 N   0  0  0  0  0  0  0  0  0  0  0  0
   11.9456   -2.0002    1.6420 C   0  0  0  0  0  0  0  0  0  0  0  0
   11.7186   -0.9753    1.9283 H   0  0  0  0  0  0  0  0  0  0  0  0
   11.1624   -2.3454    0.9623 H   0  0  0  0  0  0  0  0  0  0  0  0
   11.9216   -2.6350    2.5349 H   0  0  0  0  0  0  0  0  0  0  0  0
   14.4523   -2.0355    1.6863 C   0  0  0  0  0  0  0  0  0  0  0  0
   14.5495   -1.8856    3.0235 N   0  0  0  0  0  0  0  0  0  0  0  0
   15.4327   -2.1159    3.4715 H   0  0  0  0  0  0  0  0  0  0  0  0
   13.6948   -1.9154    3.5732 H   0  0  0  0  0  0  0  0  0  0  0  0
   15.4792   -2.2664    0.9402 N   0  0  0  0  0  4  0  0  0  0  0  0
   16.3791   -2.5436    1.3359 H   0  0  0  0  0  0  0  0  0  0  0  0
   14.2734   -5.1077   -0.4904 C   0  0  0  0  0  0  0  0  0  0  0  0
   13.2499   -4.7596   -0.3754 H   0  0  0  0  0  0  0  0  0  0  0  0
   13.5838   -8.1291   -2.7733 C   0  0  0  0  0  0  0  0  0  0  0  0
   13.6512   -7.0973   -3.1127 H   0  0  0  0  0  0  0  0  0  0  0  0
   13.5363   -9.1977   -3.6850 C   0  0  0  0  0  0  0  0  0  0  0  0
   13.6021   -9.0200   -4.7540 H   0  0  0  0  0  0  0  0  0  0  0  0
  1  2  1  0
  2  3  1  0
  3  4  2  0
  4  5  1  0
  4  6  1  0
  6  7  1  0
  6  8  2  0
  8  9  1  0
  9 10  1  0
 10 11  2  0
 11 12  1  0
 11 13  1  0
 13 14  1  0
 13 15  2  0
 15 16  1  0
 15 17  1  0
 17 18  1  0
 18 19  1  0
 19 20  2  0
 20 21  1  0
 20 22  1  0
 22 23  1  0
 22 24  2  0
 24 25  1  0
 24 26  1  0
 26 27  1  0
 26 28  2  0
 28 29  1  0
 18 30  1  0
 30 31  2  0
 30 32  1  0
 32 33  1  0
 33 34  1  0
 33 35  1  0
 33 36  1  0
 32 37  1  0
 37 38  1  0
 38 39  1  0
 38 40  1  0
 37 41  2  0
 41 42  1  0
 17 43  2  0
 43 44  1  0
  8 45  1  0
 45 46  1  0
 45 47  2  0
 47 48  1  0
 47  3  1  0
 43 10  1  0
 41 18  1  0
 28 19  1  0
M  CHG  1  41   1
M  END
>  <score>  (165) 
5.72521

$$$$

     RDKit          3D

 56 59  0  0  0  0  0  0  0  0999 V2000
   16.1111   -8.4620   -1.6837 H   0  0  0  0  0  0  0  0  0  0  0  0
   15.8645   -7.4196   -1.5103 C   0  0  0  0  0  0  0  0  0  0  0  0
   16.7653   -6.5967   -0.8245 C   0  0  0  0  0  0  0  0  0  0  0  0
   17.7074   -6.9939   -0.4558 H   0  0  0  0  0  0  0  0  0  0  0  0
   16.4474   -5.2543   -0.6037 C   0  0  0  0  0  0  0  0  0  0  0  0
   17.1408   -4.6169   -0.0616 H   0  0  0  0  0  0  0  0  0  0  0  0
   15.2251   -4.7266   -1.0467 C   0  0  0  0  0  0  0  0  0  0  0  0
   14.8543   -3.2877   -0.7548 C   0  0  0  0  0  0  0  0  0  0  0  0
   15.3482   -2.3219   -1.8087 C   0  0  0  0  0  0  0  0  0  0  0  0
   15.9187   -2.7220   -3.0296 C   0  0  0  0  0  0  0  0  0  0  0  0
   15.9843   -3.7792   -3.2672 H   0  0  0  0  0  0  0  0  0  0  0  0
   16.4388   -1.7691   -3.9190 C   0  0  0  0  0  0  0  0  0  0  0  0
   16.9060   -2.0767   -4.8520 H   0  0  0  0  0  0  0  0  0  0  0  0
   16.3855   -0.4104   -3.5804 C   0  0  0  0  0  0  0  0  0  0  0  0
   16.8031    0.3534   -4.2256 H   0  0  0  0  0  0  0  0  0  0  0  0
   15.7757   -0.0066   -2.3943 C   0  0  0  0  0  0  0  0  0  0  0  0
   15.7243    1.3294   -2.0290 N   0  0  0  0  0  0  0  0  0  0  0  0
   16.8056    2.2515   -2.4296 C   0  0  0  0  0  0  0  0  0  0  0  0
   16.8030    2.3601   -3.5164 H   0  0  0  0  0  0  0  0  0  0  0  0
   17.7733    1.8453   -2.1289 H   0  0  0  0  0  0  0  0  0  0  0  0
   16.6246    3.6253   -1.7805 C   0  0  0  0  0  0  0  0  0  0  0  0
   17.3628    4.3233   -2.1880 H   0  0  0  0  0  0  0  0  0  0  0  0
   16.7920    3.5412   -0.7020 H   0  0  0  0  0  0  0  0  0  0  0  0
   15.2481    4.1135   -2.0229 N   0  0  0  0  0  0  0  0  0  0  0  0
   15.0051    5.5404   -1.8348 C   0  0  0  0  0  0  0  0  0  0  0  0
   15.7007    6.0937   -2.4604 H   0  0  0  0  0  0  0  0  0  0  0  0
   13.9884    5.8018   -2.1460 H   0  0  0  0  0  0  0  0  0  0  0  0
   15.2186    5.9129   -0.3756 C   0  0  0  0  0  0  0  0  0  0  0  0
   15.3149    6.9963   -0.2789 H   0  0  0  0  0  0  0  0  0  0  0  0
   14.3738    5.5721    0.2284 H   0  0  0  0  0  0  0  0  0  0  0  0
   16.1291    5.4423    0.0073 H   0  0  0  0  0  0  0  0  0  0  0  0
   14.1314    3.2046   -1.6797 C   0  0  0  0  0  0  0  0  0  0  0  0
   13.5188    3.0687   -2.5751 H   0  0  0  0  0  0  0  0  0  0  0  0
   13.5020    3.6573   -0.9062 H   0  0  0  0  0  0  0  0  0  0  0  0
   14.6201    1.8376   -1.1876 C   0  0  0  0  0  0  0  0  0  0  0  0
   13.7778    1.1422   -1.1955 H   0  0  0  0  0  0  0  0  0  0  0  0
   14.9738    1.9341   -0.1604 H   0  0  0  0  0  0  0  0  0  0  0  0
   15.2452   -0.9576   -1.5381 C   0  0  0  0  0  0  0  0  0  0  0  0
   14.8029   -0.6157   -0.6096 H   0  0  0  0  0  0  0  0  0  0  0  0
   13.3441   -3.0990   -0.5246 C   0  0  0  0  0  0  0  0  0  0  0  0
   12.4224   -3.2657   -1.3248 O   0  0  0  0  0  0  0  0  0  0  0  0
   13.1565   -2.6809    0.7762 N   0  0  0  0  0  0  0  0  0  0  0  0
   11.8934   -2.2803    1.3786 C   0  0  0  0  0  0  0  0  0  0  0  0
   11.8805   -2.5212    2.4449 H   0  0  0  0  0  0  0  0  0  0  0  0
   11.7438   -1.2024    1.2735 H   0  0  0  0  0  0  0  0  0  0  0  0
   11.0626   -2.8046    0.8964 H   0  0  0  0  0  0  0  0  0  0  0  0
   14.3884   -2.5580    1.3695 C   0  0  0  0  0  0  0  0  0  0  0  0
   14.5427   -2.1458    2.6625 N   0  0  0  0  0  0  0  0  0  0  0  0
   13.7433   -2.2529    3.2851 H   0  0  0  0  0  0  0  0  0  0  0  0
   15.4815   -2.1625    3.0562 H   0  0  0  0  0  0  0  0  0  0  0  0
   15.3562   -2.8867    0.5803 N   0  0  0  0  0  4  0  0  0  0  0  0
   16.3494   -2.8360    0.8273 H   0  0  0  0  0  0  0  0  0  0  0  0
   14.3409   -5.5542   -1.7546 C   0  0  0  0  0  0  0  0  0  0  0  0
   13.3948   -5.1591   -2.1126 H   0  0  0  0  0  0  0  0  0  0  0  0
   14.6552   -6.8965   -1.9814 C   0  0  0  0  0  0  0  0  0  0  0  0
   13.9592   -7.5338   -2.5202 H   0  0  0  0  0  0  0  0  0  0  0  0
  1  2  1  0
  2  3  2  0
  3  4  1  0
  3  5  1  0
  5  6  1  0
  5  7  2  0
  7  8  1  0
  8  9  1  0
  9 10  2  0
 10 11  1  0
 10 12  1  0
 12 13  1  0
 12 14  2  0
 14 15  1  0
 14 16  1  0
 16 17  1  0
 17 18  1  0
 18 19  1  0
 18 20  1  0
 18 21  1  0
 21 22  1  0
 21 23  1  0
 21 24  1  0
 24 25  1  0
 25 26  1  0
 25 27  1  0
 25 28  1  0
 28 29  1  0
 28 30  1  0
 28 31  1  0
 24 32  1  0
 32 33  1  0
 32 34  1  0
 32 35  1  0
 35 36  1  0
 35 37  1  0
 16 38  2  0
 38 39  1  0
  8 40  1  0
 40 41  2  0
 40 42  1  0
 42 43  1  0
 43 44  1  0
 43 45  1  0
 43 46  1  0
 42 47  1  0
 47 48  1  0
 48 49  1  0
 48 50  1  0
 47 51  2  0
 51 52  1  0
  7 53  1  0
 53 54  1  0
 53 55  2  0
 55 56  1  0
 55  2  1  0
 51  8  1  0
 38  9  1  0
 35 17  1  0
M  CHG  1  51   1
M  END
>  <score>  (166) 
5.725

$$$$

     RDKit          3D

 42 44  0  0  0  0  0  0  0  0999 V2000
   16.1250   -8.4892   -1.6109 H   0  0  0  0  0  0  0  0  0  0  0  0
   15.8537   -7.4449   -1.4704 C   0  0  0  0  0  0  0  0  0  0  0  0
   16.7270   -6.5861   -0.7999 C   0  0  0  0  0  0  0  0  0  0  0  0
   17.6747   -6.9555   -0.4187 H   0  0  0  0  0  0  0  0  0  0  0  0
   16.3867   -5.2422   -0.6098 C   0  0  0  0  0  0  0  0  0  0  0  0
   17.0684   -4.5934   -0.0679 H   0  0  0  0  0  0  0  0  0  0  0  0
   15.1678   -4.7195   -1.0732 C   0  0  0  0  0  0  0  0  0  0  0  0
   14.8105   -3.2525   -0.7854 C   0  0  0  0  0  0  0  0  0  0  0  0
   15.3901   -2.2465   -1.7811 C   0  0  0  0  0  0  0  0  0  0  0  0
   15.9459   -2.6420   -3.0093 C   0  0  0  0  0  0  0  0  0  0  0  0
   16.0054   -3.6946   -3.2650 H   0  0  0  0  0  0  0  0  0  0  0  0
   16.4235   -1.6904   -3.9206 C   0  0  0  0  0  0  0  0  0  0  0  0
   16.8564   -2.0043   -4.8648 H   0  0  0  0  0  0  0  0  0  0  0  0
   16.3440   -0.3264   -3.6258 C   0  0  0  0  0  0  0  0  0  0  0  0
   16.6964    0.4081   -4.3456 H   0  0  0  0  0  0  0  0  0  0  0  0
   15.7916    0.0946   -2.4129 C   0  0  0  0  0  0  0  0  0  0  0  0
   15.6694    1.5701   -2.1016 C   0  0  0  0  0  0  0  0  0  0  0  0
   15.7718    1.7426   -1.0309 H   0  0  0  0  0  0  0  0  0  0  0  0
   16.4615    2.1328   -2.5948 H   0  0  0  0  0  0  0  0  0  0  0  0
   14.3284    2.1358   -2.5519 C   0  0  0  0  0  0  0  0  0  0  0  0
   14.1778    1.9916   -3.8917 F   0  0  0  0  0  0  0  0  0  0  0  0
   14.2597    3.4602   -2.2608 F   0  0  0  0  0  0  0  0  0  0  0  0
   13.3070    1.5064   -1.9207 F   0  0  0  0  0  0  0  0  0  0  0  0
   15.3199   -0.8653   -1.5063 C   0  0  0  0  0  0  0  0  0  0  0  0
   14.8900   -0.5263   -0.5688 H   0  0  0  0  0  0  0  0  0  0  0  0
   13.2953   -3.0232   -0.6072 C   0  0  0  0  0  0  0  0  0  0  0  0
   12.4267   -3.0836   -1.4743 O   0  0  0  0  0  0  0  0  0  0  0  0
   13.0224   -2.6721    0.7009 N   0  0  0  0  0  0  0  0  0  0  0  0
   11.7192   -2.3129    1.2623 C   0  0  0  0  0  0  0  0  0  0  0  0
   11.6928   -1.2610    1.5588 H   0  0  0  0  0  0  0  0  0  0  0  0
   11.5015   -2.9177    2.1457 H   0  0  0  0  0  0  0  0  0  0  0  0
   10.9140   -2.4751    0.5401 H   0  0  0  0  0  0  0  0  0  0  0  0
   14.2229   -2.6300    1.3655 C   0  0  0  0  0  0  0  0  0  0  0  0
   14.3939   -2.3362    2.6886 N   0  0  0  0  0  0  0  0  0  0  0  0
   13.5801   -2.1266    3.2647 H   0  0  0  0  0  0  0  0  0  0  0  0
   15.3274   -2.3569    3.0945 H   0  0  0  0  0  0  0  0  0  0  0  0
   15.2195   -2.9053    0.5915 N   0  0  0  0  0  4  0  0  0  0  0  0
   16.1887   -2.9018    0.8994 H   0  0  0  0  0  0  0  0  0  0  0  0
   14.3008   -5.5941   -1.7682 C   0  0  0  0  0  0  0  0  0  0  0  0
   13.3523   -5.2432   -2.1656 H   0  0  0  0  0  0  0  0  0  0  0  0
   14.6427   -6.9454   -1.9608 C   0  0  0  0  0  0  0  0  0  0  0  0
   13.9731   -7.6195   -2.4885 H   0  0  0  0  0  0  0  0  0  0  0  0
  1  2  1  0
  2  3  2  0
  3  4  1  0
  3  5  1  0
  5  6  1  0
  5  7  2  0
  7  8  1  0
  8  9  1  0
  9 10  2  0
 10 11  1  0
 10 12  1  0
 12 13  1  0
 12 14  2  0
 14 15  1  0
 14 16  1  0
 16 17  1  0
 17 18  1  0
 17 19  1  0
 17 20  1  0
 20 21  1  0
 20 22  1  0
 20 23  1  0
 16 24  2  0
 24 25  1  0
  8 26  1  0
 26 27  2  0
 26 28  1  0
 28 29  1  0
 29 30  1  0
 29 31  1  0
 29 32  1  0
 28 33  1  0
 33 34  1  0
 34 35  1  0
 34 36  1  0
 33 37  2  0
 37 38  1  0
  7 39  1  0
 39 40  1  0
 39 41  2  0
 41 42  1  0
 41  2  1  0
 37  8  1  0
 24  9  1  0
M  CHG  1  37   1
M  END
>  <score>  (167) 
5.71942

$$$$

     RDKit          3D

 52 55  0  0  0  0  0  0  0  0999 V2000
   16.2655   -8.5461   -1.8222 H   0  0  0  0  0  0  0  0  0  0  0  0
   15.9667   -7.5383   -1.5584 C   0  0  0  0  0  0  0  0  0  0  0  0
   16.8226   -6.7322   -0.8005 C   0  0  0  0  0  0  0  0  0  0  0  0
   17.7912   -7.1022   -0.4787 H   0  0  0  0  0  0  0  0  0  0  0  0
   16.4316   -5.4390   -0.4514 C   0  0  0  0  0  0  0  0  0  0  0  0
   17.1034   -4.8029    0.1198 H   0  0  0  0  0  0  0  0  0  0  0  0
   15.1778   -4.9459   -0.8414 C   0  0  0  0  0  0  0  0  0  0  0  0
   14.7786   -3.5265   -0.5101 C   0  0  0  0  0  0  0  0  0  0  0  0
   15.2470   -2.5766   -1.5928 C   0  0  0  0  0  0  0  0  0  0  0  0
   15.7212   -2.9992   -2.8552 C   0  0  0  0  0  0  0  0  0  0  0  0
   15.7839   -4.0546   -3.1035 H   0  0  0  0  0  0  0  0  0  0  0  0
   16.1258   -2.0552   -3.8073 C   0  0  0  0  0  0  0  0  0  0  0  0
   16.5117   -2.3598   -4.7741 H   0  0  0  0  0  0  0  0  0  0  0  0
   16.0356   -0.6958   -3.5194 C   0  0  0  0  0  0  0  0  0  0  0  0
   16.3444    0.0514   -4.2408 H   0  0  0  0  0  0  0  0  0  0  0  0
   15.5218   -0.2818   -2.2933 C   0  0  0  0  0  0  0  0  0  0  0  0
   15.3486    1.1531   -1.9847 C   0  0  0  0  0  0  0  0  0  0  0  0
   15.3703    1.7386   -2.9089 H   0  0  0  0  0  0  0  0  0  0  0  0
   14.3699    1.3078   -1.5181 H   0  0  0  0  0  0  0  0  0  0  0  0
   16.4618    1.5902   -1.0409 C   0  0  0  0  0  0  0  0  0  0  0  0
   17.4417    1.3429   -1.4616 H   0  0  0  0  0  0  0  0  0  0  0  0
   16.3525    1.1174   -0.0621 H   0  0  0  0  0  0  0  0  0  0  0  0
   16.3122    3.0574   -0.9410 C   0  0  0  0  0  0  0  0  0  0  0  0
   16.6145    3.7901   -2.0836 C   0  0  0  0  0  0  0  0  0  0  0  0
   17.0434    3.2663   -2.9333 H   0  0  0  0  0  0  0  0  0  0  0  0
   16.2305    5.1251   -2.1611 C   0  0  0  0  0  0  0  0  0  0  0  0
   16.3950    5.6688   -3.0837 H   0  0  0  0  0  0  0  0  0  0  0  0
   15.6540    5.7408   -1.0414 C   0  0  0  0  0  0  0  0  0  0  0  0
   15.3993    6.7868   -1.0570 H   0  0  0  0  0  0  0  0  0  0  0  0
   15.4444    5.0255    0.1362 C   0  0  0  0  0  0  0  0  0  0  0  0
   15.0437    5.5096    1.0222 H   0  0  0  0  0  0  0  0  0  0  0  0
   15.7129    3.6610    0.1696 C   0  0  0  0  0  0  0  0  0  0  0  0
   15.4430    3.0826    1.0469 H   0  0  0  0  0  0  0  0  0  0  0  0
   15.1465   -1.2123   -1.3391 C   0  0  0  0  0  0  0  0  0  0  0  0
   14.7640   -0.8737   -0.3791 H   0  0  0  0  0  0  0  0  0  0  0  0
   13.2662   -3.3355   -0.2641 C   0  0  0  0  0  0  0  0  0  0  0  0
   12.3523   -3.5432   -1.0590 O   0  0  0  0  0  0  0  0  0  0  0  0
   13.0715   -2.7997    0.9936 N   0  0  0  0  0  0  0  0  0  0  0  0
   11.8178   -2.2951    1.5563 C   0  0  0  0  0  0  0  0  0  0  0  0
   10.9806   -2.4577    0.8681 H   0  0  0  0  0  0  0  0  0  0  0  0
   11.8961   -1.2193    1.7510 H   0  0  0  0  0  0  0  0  0  0  0  0
   11.5857   -2.8047    2.4987 H   0  0  0  0  0  0  0  0  0  0  0  0
   14.3132   -2.6528    1.5680 C   0  0  0  0  0  0  0  0  0  0  0  0
   14.5337   -2.0752    2.7785 N   0  0  0  0  0  0  0  0  0  0  0  0
   15.4580   -2.1888    3.1906 H   0  0  0  0  0  0  0  0  0  0  0  0
   13.7336   -1.9425    3.3953 H   0  0  0  0  0  0  0  0  0  0  0  0
   15.2695   -3.1037    0.8199 N   0  0  0  0  0  4  0  0  0  0  0  0
   16.2607   -3.0070    1.0499 H   0  0  0  0  0  0  0  0  0  0  0  0
   14.3393   -5.7474   -1.6313 C   0  0  0  0  0  0  0  0  0  0  0  0
   13.3868   -5.3550   -1.9797 H   0  0  0  0  0  0  0  0  0  0  0  0
   14.7301   -7.0409   -1.9849 C   0  0  0  0  0  0  0  0  0  0  0  0
   14.0701   -7.6542   -2.5899 H   0  0  0  0  0  0  0  0  0  0  0  0
  1  2  1  0
  2  3  2  0
  3  4  1  0
  3  5  1  0
  5  6  1  0
  5  7  2  0
  7  8  1  0
  8  9  1  0
  9 10  2  0
 10 11  1  0
 10 12  1  0
 12 13  1  0
 12 14  2  0
 14 15  1  0
 14 16  1  0
 16 17  1  0
 17 18  1  0
 17 19  1  0
 17 20  1  0
 20 21  1  0
 20 22  1  0
 20 23  1  0
 23 24  2  0
 24 25  1  0
 24 26  1  0
 26 27  1  0
 26 28  2  0
 28 29  1  0
 28 30  1  0
 30 31  1  0
 30 32  2  0
 32 33  1  0
 16 34  2  0
 34 35  1  0
  8 36  1  0
 36 37  2  0
 36 38  1  0
 38 39  1  0
 39 40  1  0
 39 41  1  0
 39 42  1  0
 38 43  1  0
 43 44  1  0
 44 45  1  0
 44 46  1  0
 43 47  2  0
 47 48  1  0
  7 49  1  0
 49 50  1  0
 49 51  2  0
 51 52  1  0
 51  2  1  0
 47  8  1  0
 34  9  1  0
 32 23  1  0
M  CHG  1  47   1
M  END
>  <score>  (168) 
5.7144

$$$$

     RDKit          3D

 59 62  0  0  0  0  0  0  0  0999 V2000
   16.0961   -8.4064   -1.6645 H   0  0  0  0  0  0  0  0  0  0  0  0
   15.8605   -7.3600   -1.4959 C   0  0  0  0  0  0  0  0  0  0  0  0
   16.7630   -6.5412   -0.8088 C   0  0  0  0  0  0  0  0  0  0  0  0
   17.7041   -6.9429   -0.4450 H   0  0  0  0  0  0  0  0  0  0  0  0
   16.4507   -5.1986   -0.5769 C   0  0  0  0  0  0  0  0  0  0  0  0
   17.1540   -4.5666   -0.0416 H   0  0  0  0  0  0  0  0  0  0  0  0
   15.2304   -4.6594   -1.0112 C   0  0  0  0  0  0  0  0  0  0  0  0
   14.8766   -3.2114   -0.7084 C   0  0  0  0  0  0  0  0  0  0  0  0
   15.4389   -2.2345   -1.7347 C   0  0  0  0  0  0  0  0  0  0  0  0
   15.9251   -2.6649   -2.9830 C   0  0  0  0  0  0  0  0  0  0  0  0
   15.9406   -3.7236   -3.2211 H   0  0  0  0  0  0  0  0  0  0  0  0
   16.3919   -1.7437   -3.9281 C   0  0  0  0  0  0  0  0  0  0  0  0
   16.7707   -2.0809   -4.8877 H   0  0  0  0  0  0  0  0  0  0  0  0
   16.3680   -0.3799   -3.6323 C   0  0  0  0  0  0  0  0  0  0  0  0
   16.7309    0.3496   -4.3472 H   0  0  0  0  0  0  0  0  0  0  0  0
   15.8872    0.0775   -2.4053 C   0  0  0  0  0  0  0  0  0  0  0  0
   15.8626    1.4460   -2.1289 N   0  0  0  0  0  0  0  0  0  0  0  0
   15.9154    1.9270   -0.7335 C   0  0  0  0  0  0  0  0  0  0  0  0
   14.9358    1.8333   -0.2596 H   0  0  0  0  0  0  0  0  0  0  0  0
   16.6276    1.3338   -0.1544 H   0  0  0  0  0  0  0  0  0  0  0  0
   16.3542    3.3848   -0.7407 C   0  0  0  0  0  0  0  0  0  0  0  0
   16.4692    3.7654    0.2750 H   0  0  0  0  0  0  0  0  0  0  0  0
   17.3218    3.4572   -1.2395 H   0  0  0  0  0  0  0  0  0  0  0  0
   15.3206    4.2158   -1.5003 C   0  0  0  0  0  0  0  0  0  0  0  0
   15.7363    5.2135   -1.6738 H   0  0  0  0  0  0  0  0  0  0  0  0
   14.1020    4.3224   -0.6740 N   0  0  0  0  0  0  0  0  0  0  0  0
   14.2755    4.7422    0.7370 C   0  0  0  0  0  0  0  0  0  0  0  0
   14.8205    3.9761    1.2962 H   0  0  0  0  0  0  0  0  0  0  0  0
   14.8366    5.6777    0.8106 H   0  0  0  0  0  0  0  0  0  0  0  0
   13.3102    4.8851    1.2275 H   0  0  0  0  0  0  0  0  0  0  0  0
   12.8749    4.7915   -1.3477 C   0  0  0  0  0  0  0  0  0  0  0  0
   12.9354    5.8571   -1.5779 H   0  0  0  0  0  0  0  0  0  0  0  0
   12.0162    4.6056   -0.6936 H   0  0  0  0  0  0  0  0  0  0  0  0
   12.7105    4.2637   -2.2912 H   0  0  0  0  0  0  0  0  0  0  0  0
   14.9839    3.5778   -2.8632 C   0  0  0  0  0  0  0  0  0  0  0  0
   15.0032    4.3543   -3.6255 H   0  0  0  0  0  0  0  0  0  0  0  0
   13.9742    3.1680   -2.8458 H   0  0  0  0  0  0  0  0  0  0  0  0
   15.9104    2.4246   -3.2304 C   0  0  0  0  0  0  0  0  0  0  0  0
   15.5820    1.9703   -4.1723 H   0  0  0  0  0  0  0  0  0  0  0  0
   16.9351    2.7729   -3.3673 H   0  0  0  0  0  0  0  0  0  0  0  0
   15.4241   -0.8534   -1.4694 C   0  0  0  0  0  0  0  0  0  0  0  0
   15.0369   -0.4779   -0.5289 H   0  0  0  0  0  0  0  0  0  0  0  0
   13.3590   -3.0042   -0.5437 C   0  0  0  0  0  0  0  0  0  0  0  0
   12.4895   -3.1785   -1.3953 O   0  0  0  0  0  0  0  0  0  0  0  0
   13.0813   -2.6173    0.7541 N   0  0  0  0  0  0  0  0  0  0  0  0
   11.7660   -2.2900    1.3049 C   0  0  0  0  0  0  0  0  0  0  0  0
   11.7233   -1.2329    1.5910 H   0  0  0  0  0  0  0  0  0  0  0  0
   10.9746   -2.4749    0.5688 H   0  0  0  0  0  0  0  0  0  0  0  0
   11.5533   -2.9006    2.1904 H   0  0  0  0  0  0  0  0  0  0  0  0
   14.2845   -2.5590    1.4211 C   0  0  0  0  0  0  0  0  0  0  0  0
   14.4543   -2.2315    2.7366 N   0  0  0  0  0  0  0  0  0  0  0  0
   13.6387   -2.0952    3.3297 H   0  0  0  0  0  0  0  0  0  0  0  0
   15.3882   -2.2790    3.1390 H   0  0  0  0  0  0  0  0  0  0  0  0
   15.2882   -2.8645    0.6706 N   0  0  0  0  0  4  0  0  0  0  0  0
   16.2501   -2.9383    1.0079 H   0  0  0  0  0  0  0  0  0  0  0  0
   14.3453   -5.4834   -1.7294 C   0  0  0  0  0  0  0  0  0  0  0  0
   13.4065   -5.0806   -2.0983 H   0  0  0  0  0  0  0  0  0  0  0  0
   14.6554   -6.8275   -1.9659 C   0  0  0  0  0  0  0  0  0  0  0  0
   13.9553   -7.4569   -2.5077 H   0  0  0  0  0  0  0  0  0  0  0  0
  1  2  1  0
  2  3  2  0
  3  4  1  0
  3  5  1  0
  5  6  1  0
  5  7  2  0
  7  8  1  0
  8  9  1  0
  9 10  2  0
 10 11  1  0
 10 12  1  0
 12 13  1  0
 12 14  2  0
 14 15  1  0
 14 16  1  0
 16 17  1  0
 17 18  1  0
 18 19  1  0
 18 20  1  0
 18 21  1  0
 21 22  1  0
 21 23  1  0
 21 24  1  0
 24 25  1  0
 24 26  1  0
 26 27  1  0
 27 28  1  0
 27 29  1  0
 27 30  1  0
 26 31  1  0
 31 32  1  0
 31 33  1  0
 31 34  1  0
 24 35  1  0
 35 36  1  0
 35 37  1  0
 35 38  1  0
 38 39  1  0
 38 40  1  0
 16 41  2  0
 41 42  1  0
  8 43  1  0
 43 44  2  0
 43 45  1  0
 45 46  1  0
 46 47  1  0
 46 48  1  0
 46 49  1  0
 45 50  1  0
 50 51  1  0
 51 52  1  0
 51 53  1  0
 50 54  2  0
 54 55  1  0
  7 56  1  0
 56 57  1  0
 56 58  2  0
 58 59  1  0
 58  2  1  0
 54  8  1  0
 41  9  1  0
 38 17  1  0
M  CHG  1  54   1
M  END
>  <score>  (169) 
5.71132

$$$$

     RDKit          3D

 56 60  0  0  0  0  0  0  0  0999 V2000
    7.2573  -12.4162   -5.6587 H   0  0  0  0  0  0  0  0  0  0  0  0
    7.9423  -11.8473   -5.0390 C   0  0  0  0  0  0  0  0  0  0  0  0
    9.0788  -12.4532   -4.5052 C   0  0  0  0  0  0  0  0  0  0  0  0
    9.2618  -13.5076   -4.6938 H   0  0  0  0  0  0  0  0  0  0  0  0
    9.9802  -11.6936   -3.7495 C   0  0  0  0  0  0  0  0  0  0  0  0
   10.8728  -12.1666   -3.3730 H   0  0  0  0  0  0  0  0  0  0  0  0
    9.7667  -10.3274   -3.5070 C   0  0  0  0  0  0  0  0  0  0  0  0
   10.8020   -9.5120   -2.8182 C   0  0  0  0  0  0  0  0  0  0  0  0
   10.5344   -8.2135   -2.3654 C   0  0  0  0  0  0  0  0  0  0  0  0
    9.5242   -7.8289   -2.4420 H   0  0  0  0  0  0  0  0  0  0  0  0
   11.5542   -7.3893   -1.8580 C   0  0  0  0  0  0  0  0  0  0  0  0
   11.3134   -6.3744   -1.5629 H   0  0  0  0  0  0  0  0  0  0  0  0
   12.8819   -7.8447   -1.7783 C   0  0  0  0  0  0  0  0  0  0  0  0
   14.0007   -6.9604   -1.3619 C   0  0  0  0  0  0  0  0  0  0  0  0
   15.3031   -7.4747   -1.2322 C   0  0  0  0  0  0  0  0  0  0  0  0
   15.4829   -8.5340   -1.3854 H   0  0  0  0  0  0  0  0  0  0  0  0
   16.3803   -6.6431   -0.9150 C   0  0  0  0  0  0  0  0  0  0  0  0
   17.3800   -7.0597   -0.8276 H   0  0  0  0  0  0  0  0  0  0  0  0
   16.1713   -5.2756   -0.7109 C   0  0  0  0  0  0  0  0  0  0  0  0
   17.0202   -4.6370   -0.4829 H   0  0  0  0  0  0  0  0  0  0  0  0
   14.8802   -4.7260   -0.7880 C   0  0  0  0  0  0  0  0  0  0  0  0
   14.6573   -3.2348   -0.5089 C   0  0  0  0  0  0  0  0  0  0  0  0
   15.2695   -2.3128   -1.5624 C   0  0  0  0  0  0  0  0  0  0  0  0
   15.8003   -2.8088   -2.7673 C   0  0  0  0  0  0  0  0  0  0  0  0
   15.7734   -3.8748   -2.9668 H   0  0  0  0  0  0  0  0  0  0  0  0
   16.3795   -1.9460   -3.7084 C   0  0  0  0  0  0  0  0  0  0  0  0
   16.7909   -2.3408   -4.6308 H   0  0  0  0  0  0  0  0  0  0  0  0
   16.4372   -0.5712   -3.4621 C   0  0  0  0  0  0  0  0  0  0  0  0
   16.8991    0.0948   -4.1871 H   0  0  0  0  0  0  0  0  0  0  0  0
   15.8931   -0.0587   -2.2818 C   0  0  0  0  0  0  0  0  0  0  0  0
   15.9276    1.0095   -2.0851 H   0  0  0  0  0  0  0  0  0  0  0  0
   15.3102   -0.9231   -1.3459 C   0  0  0  0  0  0  0  0  0  0  0  0
   14.8997   -0.5105   -0.4285 H   0  0  0  0  0  0  0  0  0  0  0  0
   13.1709   -2.8974   -0.2595 C   0  0  0  0  0  0  0  0  0  0  0  0
   12.2420   -2.9664   -1.0640 O   0  0  0  0  0  0  0  0  0  0  0  0
   13.0019   -2.5104    1.0517 N   0  0  0  0  0  0  0  0  0  0  0  0
   11.7785   -1.9997    1.6636 C   0  0  0  0  0  0  0  0  0  0  0  0
   11.5725   -2.5362    2.5988 H   0  0  0  0  0  0  0  0  0  0  0  0
   11.9003   -0.9317    1.8694 H   0  0  0  0  0  0  0  0  0  0  0  0
   10.9117   -2.1224    1.0016 H   0  0  0  0  0  0  0  0  0  0  0  0
   14.2481   -2.4899    1.6360 C   0  0  0  0  0  0  0  0  0  0  0  0
   14.4743   -2.0522    2.9099 N   0  0  0  0  0  0  0  0  0  0  0  0
   15.3610   -2.2902    3.3530 H   0  0  0  0  0  0  0  0  0  0  0  0
   13.6634   -1.8778    3.4975 H   0  0  0  0  0  0  0  0  0  0  0  0
   15.1806   -2.8874    0.8327 N   0  0  0  0  0  4  0  0  0  0  0  0
   16.1777   -2.8339    1.0468 H   0  0  0  0  0  0  0  0  0  0  0  0
   13.8084   -5.5838   -1.1235 C   0  0  0  0  0  0  0  0  0  0  0  0
   12.8065   -5.1740   -1.1993 H   0  0  0  0  0  0  0  0  0  0  0  0
   13.1381   -9.1615   -2.1839 C   0  0  0  0  0  0  0  0  0  0  0  0
   14.1529   -9.5397   -2.1309 H   0  0  0  0  0  0  0  0  0  0  0  0
   12.1231   -9.9772   -2.6966 C   0  0  0  0  0  0  0  0  0  0  0  0
   12.3889  -10.9657   -3.0480 H   0  0  0  0  0  0  0  0  0  0  0  0
    8.6048   -9.7429   -4.0432 C   0  0  0  0  0  0  0  0  0  0  0  0
    8.4305   -8.6841   -3.9041 H   0  0  0  0  0  0  0  0  0  0  0  0
    7.7010  -10.4909   -4.8093 C   0  0  0  0  0  0  0  0  0  0  0  0
    6.8356  -10.0006   -5.2454 H   0  0  0  0  0  0  0  0  0  0  0  0
  1  2  1  0
  2  3  2  0
  3  4  1  0
  3  5  1  0
  5  6  1  0
  5  7  2  0
  7  8  1  0
  8  9  2  0
  9 10  1  0
  9 11  1  0
 11 12  1  0
 11 13  2  0
 13 14  1  0
 14 15  2  0
 15 16  1  0
 15 17  1  0
 17 18  1  0
 17 19  2  0
 19 20  1  0
 19 21  1  0
 21 22  1  0
 22 23  1  0
 23 24  2  0
 24 25  1  0
 24 26  1  0
 26 27  1  0
 26 28  2  0
 28 29  1  0
 28 30  1  0
 30 31  1  0
 30 32  2  0
 32 33  1  0
 22 34  1  0
 34 35  2  0
 34 36  1  0
 36 37  1  0
 37 38  1  0
 37 39  1  0
 37 40  1  0
 36 41  1  0
 41 42  1  0
 42 43  1  0
 42 44  1  0
 41 45  2  0
 45 46  1  0
 21 47  2  0
 47 48  1  0
 13 49  1  0
 49 50  1  0
 49 51  2  0
 51 52  1  0
  7 53  1  0
 53 54  1  0
 53 55  2  0
 55 56  1  0
 55  2  1  0
 51  8  1  0
 47 14  1  0
 45 22  1  0
 32 23  1  0
M  CHG  1  45   1
M  END
>  <score>  (170) 
5.71076

$$$$

     RDKit          3D

 53 56  0  0  0  0  0  0  0  0999 V2000
   16.1003   -8.4597   -1.6174 H   0  0  0  0  0  0  0  0  0  0  0  0
   15.8596   -7.4087   -1.4854 C   0  0  0  0  0  0  0  0  0  0  0  0
   16.7421   -6.5665   -0.8030 C   0  0  0  0  0  0  0  0  0  0  0  0
   17.6756   -6.9587   -0.4099 H   0  0  0  0  0  0  0  0  0  0  0  0
   16.4118   -5.2212   -0.6060 C   0  0  0  0  0  0  0  0  0  0  0  0
   17.0824   -4.5698   -0.0537 H   0  0  0  0  0  0  0  0  0  0  0  0
   15.1940   -4.6982   -1.0685 C   0  0  0  0  0  0  0  0  0  0  0  0
   14.8286   -3.2459   -0.7642 C   0  0  0  0  0  0  0  0  0  0  0  0
   15.3950   -2.2444   -1.7697 C   0  0  0  0  0  0  0  0  0  0  0  0
   15.9470   -2.6463   -2.9991 C   0  0  0  0  0  0  0  0  0  0  0  0
   15.9971   -3.7065   -3.2322 H   0  0  0  0  0  0  0  0  0  0  0  0
   16.4210   -1.6967   -3.9171 C   0  0  0  0  0  0  0  0  0  0  0  0
   16.8480   -2.0096   -4.8643 H   0  0  0  0  0  0  0  0  0  0  0  0
   16.3337   -0.3337   -3.6210 C   0  0  0  0  0  0  0  0  0  0  0  0
   16.6967    0.4099   -4.3252 H   0  0  0  0  0  0  0  0  0  0  0  0
   15.7680    0.0894   -2.4154 C   0  0  0  0  0  0  0  0  0  0  0  0
   15.6386    1.5588   -2.1198 C   0  0  0  0  0  0  0  0  0  0  0  0
   15.9193    1.7417   -1.0779 H   0  0  0  0  0  0  0  0  0  0  0  0
   16.3193    2.1247   -2.7637 H   0  0  0  0  0  0  0  0  0  0  0  0
   14.2146    2.0089   -2.3501 C   0  0  0  0  0  0  0  0  0  0  0  0
   13.3645    2.1014   -1.2523 C   0  0  0  0  0  0  0  0  0  0  0  0
   13.7805    1.9101   -0.2766 H   0  0  0  0  0  0  0  0  0  0  0  0
   12.0228    2.4396   -1.4131 C   0  0  0  0  0  0  0  0  0  0  0  0
   11.3810    2.4590   -0.5407 H   0  0  0  0  0  0  0  0  0  0  0  0
   11.5236    2.7510   -2.6822 C   0  0  0  0  0  0  0  0  0  0  0  0
   10.4763    3.0292   -2.7888 H   0  0  0  0  0  0  0  0  0  0  0  0
   12.3883    2.7015   -3.7909 C   0  0  0  0  0  0  0  0  0  0  0  0
   12.0411    2.9561   -4.7863 H   0  0  0  0  0  0  0  0  0  0  0  0
   13.7334    2.3116   -3.6324 C   0  0  0  0  0  0  0  0  0  0  0  0
   14.6335    2.2052   -4.6619 O   0  0  0  0  0  0  0  0  0  0  0  0
   14.1737    2.5335   -5.9680 C   0  0  0  0  0  0  0  0  0  0  0  0
   15.0114    2.4301   -6.6695 H   0  0  0  0  0  0  0  0  0  0  0  0
   13.3679    1.8508   -6.2547 H   0  0  0  0  0  0  0  0  0  0  0  0
   13.8079    3.5664   -5.9877 H   0  0  0  0  0  0  0  0  0  0  0  0
   15.3092   -0.8665   -1.4979 C   0  0  0  0  0  0  0  0  0  0  0  0
   14.8708   -0.5346   -0.5606 H   0  0  0  0  0  0  0  0  0  0  0  0
   13.3045   -3.0405   -0.5954 C   0  0  0  0  0  0  0  0  0  0  0  0
   12.4437   -3.1357   -1.4638 O   0  0  0  0  0  0  0  0  0  0  0  0
   13.0281   -2.6821    0.7116 N   0  0  0  0  0  0  0  0  0  0  0  0
   11.7268   -2.3139    1.2738 C   0  0  0  0  0  0  0  0  0  0  0  0
   11.7132   -1.2537    1.5513 H   0  0  0  0  0  0  0  0  0  0  0  0
   10.9219   -2.4828    0.5491 H   0  0  0  0  0  0  0  0  0  0  0  0
   11.5071   -2.9120    2.1660 H   0  0  0  0  0  0  0  0  0  0  0  0
   14.2402   -2.6226    1.3694 C   0  0  0  0  0  0  0  0  0  0  0  0
   14.4118   -2.2970    2.6760 N   0  0  0  0  0  0  0  0  0  0  0  0
   15.3477   -2.3307    3.0778 H   0  0  0  0  0  0  0  0  0  0  0  0
   13.6007   -2.1229    3.2630 H   0  0  0  0  0  0  0  0  0  0  0  0
   15.2476   -2.9146    0.6136 N   0  0  0  0  0  4  0  0  0  0  0  0
   16.2156   -2.9662    0.9456 H   0  0  0  0  0  0  0  0  0  0  0  0
   14.3187   -5.5553   -1.7634 C   0  0  0  0  0  0  0  0  0  0  0  0
   13.3641   -5.1753   -2.1166 H   0  0  0  0  0  0  0  0  0  0  0  0
   14.6494   -6.9035   -1.9710 C   0  0  0  0  0  0  0  0  0  0  0  0
   13.9586   -7.5653   -2.4863 H   0  0  0  0  0  0  0  0  0  0  0  0
  1  2  1  0
  2  3  2  0
  3  4  1  0
  3  5  1  0
  5  6  1  0
  5  7  2  0
  7  8  1  0
  8  9  1  0
  9 10  2  0
 10 11  1  0
 10 12  1  0
 12 13  1  0
 12 14  2  0
 14 15  1  0
 14 16  1  0
 16 17  1  0
 17 18  1  0
 17 19  1  0
 17 20  1  0
 20 21  2  0
 21 22  1  0
 21 23  1  0
 23 24  1  0
 23 25  2  0
 25 26  1  0
 25 27  1  0
 27 28  1  0
 27 29  2  0
 29 30  1  0
 30 31  1  0
 31 32  1  0
 31 33  1  0
 31 34  1  0
 16 35  2  0
 35 36  1  0
  8 37  1  0
 37 38  2  0
 37 39  1  0
 39 40  1  0
 40 41  1  0
 40 42  1  0
 40 43  1  0
 39 44  1  0
 44 45  1  0
 45 46  1  0
 45 47  1  0
 44 48  2  0
 48 49  1  0
  7 50  1  0
 50 51  1  0
 50 52  2  0
 52 53  1  0
 52  2  1  0
 48  8  1  0
 35  9  1  0
 29 20  1  0
M  CHG  1  48   1
M  END
>  <score>  (171) 
5.70497

$$$$

     RDKit          3D

 50 53  0  0  0  0  0  0  0  0999 V2000
   16.2444   -8.5551   -1.8842 H   0  0  0  0  0  0  0  0  0  0  0  0
   15.9679   -7.5511   -1.5812 C   0  0  0  0  0  0  0  0  0  0  0  0
   16.8473   -6.7826   -0.8130 C   0  0  0  0  0  0  0  0  0  0  0  0
   17.8011   -7.1945   -0.4983 H   0  0  0  0  0  0  0  0  0  0  0  0
   16.5010   -5.4763   -0.4491 C   0  0  0  0  0  0  0  0  0  0  0  0
   17.1900   -4.8812    0.1432 H   0  0  0  0  0  0  0  0  0  0  0  0
   15.2686   -4.9270   -0.8396 C   0  0  0  0  0  0  0  0  0  0  0  0
   14.9178   -3.4794   -0.5294 C   0  0  0  0  0  0  0  0  0  0  0  0
   15.4657   -2.5464   -1.5982 C   0  0  0  0  0  0  0  0  0  0  0  0
   15.8490   -2.9954   -2.8698 C   0  0  0  0  0  0  0  0  0  0  0  0
   15.8159   -4.0618   -3.0823 H   0  0  0  0  0  0  0  0  0  0  0  0
   16.2598   -2.0832   -3.8522 C   0  0  0  0  0  0  0  0  0  0  0  0
   16.5599   -2.4454   -4.8287 H   0  0  0  0  0  0  0  0  0  0  0  0
   16.2611   -0.7042   -3.5881 C   0  0  0  0  0  0  0  0  0  0  0  0
   16.5757   -0.0005   -4.3533 H   0  0  0  0  0  0  0  0  0  0  0  0
   15.8653   -0.2415   -2.3246 C   0  0  0  0  0  0  0  0  0  0  0  0
   15.7893    1.1732   -1.9491 C   0  0  0  0  0  0  0  0  0  0  0  0
   15.5806    2.2125   -2.8587 C   0  0  0  0  0  0  0  0  0  0  0  0
   15.5064    1.9809   -3.9140 H   0  0  0  0  0  0  0  0  0  0  0  0
   15.4320    3.5289   -2.4101 C   0  0  0  0  0  0  0  0  0  0  0  0
   15.2380    4.3067   -3.1432 H   0  0  0  0  0  0  0  0  0  0  0  0
   15.5153    3.8343   -1.0390 C   0  0  0  0  0  0  0  0  0  0  0  0
   15.4183    5.2127   -0.5667 C   0  0  0  0  0  0  0  0  0  0  0  0
   15.4261    6.1666   -1.3223 O   0  0  0  0  0  0  0  0  0  0  0  0
   15.3402    5.5277    0.7594 N   0  0  0  0  0  0  0  0  0  0  0  0
   15.1127    6.4953    0.9560 H   0  0  0  0  0  0  0  0  0  0  0  0
   15.0992    4.7988    1.4165 H   0  0  0  0  0  0  0  0  0  0  0  0
   15.7143    2.7820   -0.1380 C   0  0  0  0  0  0  0  0  0  0  0  0
   15.7593    2.9378    0.9319 H   0  0  0  0  0  0  0  0  0  0  0  0
   15.8583    1.4872   -0.5946 C   0  0  0  0  0  0  0  0  0  0  0  0
   16.0193    0.6888    0.1167 H   0  0  0  0  0  0  0  0  0  0  0  0
   15.4919   -1.1758   -1.3532 C   0  0  0  0  0  0  0  0  0  0  0  0
   15.1725   -0.8199   -0.3798 H   0  0  0  0  0  0  0  0  0  0  0  0
   13.4056   -3.2338   -0.3507 C   0  0  0  0  0  0  0  0  0  0  0  0
   12.5206   -3.4591   -1.1727 O   0  0  0  0  0  0  0  0  0  0  0  0
   13.1681   -2.6791    0.8889 N   0  0  0  0  0  0  0  0  0  0  0  0
   11.8872   -2.2495    1.4429 C   0  0  0  0  0  0  0  0  0  0  0  0
   11.0696   -2.4281    0.7360 H   0  0  0  0  0  0  0  0  0  0  0  0
   11.9122   -1.1802    1.6778 H   0  0  0  0  0  0  0  0  0  0  0  0
   11.6736   -2.8046    2.3614 H   0  0  0  0  0  0  0  0  0  0  0  0
   14.3789   -2.5907    1.5293 C   0  0  0  0  0  0  0  0  0  0  0  0
   14.5608   -2.0562    2.7642 N   0  0  0  0  0  0  0  0  0  0  0  0
   15.4624   -2.2021    3.2142 H   0  0  0  0  0  0  0  0  0  0  0  0
   13.7357   -1.9258    3.3455 H   0  0  0  0  0  0  0  0  0  0  0  0
   15.3487   -3.0704    0.8203 N   0  0  0  0  0  4  0  0  0  0  0  0
   16.3258   -3.0295    1.1031 H   0  0  0  0  0  0  0  0  0  0  0  0
   14.3893   -5.7147   -1.6010 C   0  0  0  0  0  0  0  0  0  0  0  0
   13.4359   -5.3044   -1.9219 H   0  0  0  0  0  0  0  0  0  0  0  0
   14.7359   -7.0179   -1.9702 C   0  0  0  0  0  0  0  0  0  0  0  0
   14.0528   -7.6049   -2.5750 H   0  0  0  0  0  0  0  0  0  0  0  0
  1  2  1  0
  2  3  2  0
  3  4  1  0
  3  5  1  0
  5  6  1  0
  5  7  2  0
  7  8  1  0
  8  9  1  0
  9 10  2  0
 10 11  1  0
 10 12  1  0
 12 13  1  0
 12 14  2  0
 14 15  1  0
 14 16  1  0
 16 17  1  0
 17 18  2  0
 18 19  1  0
 18 20  1  0
 20 21  1  0
 20 22  2  0
 22 23  1  0
 23 24  2  0
 23 25  1  0
 25 26  1  0
 25 27  1  0
 22 28  1  0
 28 29  1  0
 28 30  2  0
 30 31  1  0
 16 32  2  0
 32 33  1  0
  8 34  1  0
 34 35  2  0
 34 36  1  0
 36 37  1  0
 37 38  1  0
 37 39  1  0
 37 40  1  0
 36 41  1  0
 41 42  1  0
 42 43  1  0
 42 44  1  0
 41 45  2  0
 45 46  1  0
  7 47  1  0
 47 48  1  0
 47 49  2  0
 49 50  1  0
 49  2  1  0
 45  8  1  0
 32  9  1  0
 30 17  1  0
M  CHG  1  45   1
M  END
>  <score>  (172) 
5.69947

$$$$

     RDKit          3D

 53 55  0  0  0  0  0  0  0  0999 V2000
   16.1235   -8.3755   -1.6702 H   0  0  0  0  0  0  0  0  0  0  0  0
   15.8729   -7.3365   -1.4779 C   0  0  0  0  0  0  0  0  0  0  0  0
   16.7642   -6.5113   -0.7799 C   0  0  0  0  0  0  0  0  0  0  0  0
   17.7100   -6.9087   -0.4236 H   0  0  0  0  0  0  0  0  0  0  0  0
   16.4390   -5.1720   -0.5320 C   0  0  0  0  0  0  0  0  0  0  0  0
   17.1335   -4.5426    0.0194 H   0  0  0  0  0  0  0  0  0  0  0  0
   15.2151   -4.6384   -0.9696 C   0  0  0  0  0  0  0  0  0  0  0  0
   14.8250   -3.1966   -0.6658 C   0  0  0  0  0  0  0  0  0  0  0  0
   15.3959   -2.2107   -1.6811 C   0  0  0  0  0  0  0  0  0  0  0  0
   15.9471   -2.6426   -2.9033 C   0  0  0  0  0  0  0  0  0  0  0  0
   16.0132   -3.7030   -3.1245 H   0  0  0  0  0  0  0  0  0  0  0  0
   16.3989   -1.7198   -3.8530 C   0  0  0  0  0  0  0  0  0  0  0  0
   16.8188   -2.0553   -4.7964 H   0  0  0  0  0  0  0  0  0  0  0  0
   16.3051   -0.3504   -3.5980 C   0  0  0  0  0  0  0  0  0  0  0  0
   16.6642    0.3664   -4.3317 H   0  0  0  0  0  0  0  0  0  0  0  0
   15.7572    0.1057   -2.3877 C   0  0  0  0  0  0  0  0  0  0  0  0
   15.6725    1.5857   -2.0831 C   0  0  0  0  0  0  0  0  0  0  0  0
   16.6346    2.0445   -2.3345 H   0  0  0  0  0  0  0  0  0  0  0  0
   15.5082    1.7343   -1.0083 H   0  0  0  0  0  0  0  0  0  0  0  0
   14.5936    2.2624   -2.8405 N   0  0  0  0  0  0  0  0  0  0  0  0
   14.6724    3.7347   -2.8050 C   0  0  0  0  0  0  0  0  0  0  0  0
   15.6908    4.0527   -3.0503 H   0  0  0  0  0  0  0  0  0  0  0  0
   14.4422    4.0948   -1.7969 H   0  0  0  0  0  0  0  0  0  0  0  0
   13.7002    4.3457   -3.8064 C   0  0  0  0  0  0  0  0  0  0  0  0
   13.8464    5.4275   -3.8606 H   0  0  0  0  0  0  0  0  0  0  0  0
   12.6712    4.1434   -3.4962 H   0  0  0  0  0  0  0  0  0  0  0  0
   13.8597    3.9160   -4.8000 H   0  0  0  0  0  0  0  0  0  0  0  0
   13.2435    1.6832   -2.6878 C   0  0  0  0  0  0  0  0  0  0  0  0
   12.5689    2.0970   -3.4484 H   0  0  0  0  0  0  0  0  0  0  0  0
   13.2857    0.5966   -2.8325 H   0  0  0  0  0  0  0  0  0  0  0  0
   12.7038    1.9951   -1.2961 C   0  0  0  0  0  0  0  0  0  0  0  0
   11.7271    1.5228   -1.1540 H   0  0  0  0  0  0  0  0  0  0  0  0
   12.5909    3.0793   -1.1732 H   0  0  0  0  0  0  0  0  0  0  0  0
   13.3973    1.6120   -0.5392 H   0  0  0  0  0  0  0  0  0  0  0  0
   15.3068   -0.8303   -1.4441 C   0  0  0  0  0  0  0  0  0  0  0  0
   14.8757   -0.4786   -0.5093 H   0  0  0  0  0  0  0  0  0  0  0  0
   13.2955   -3.0336   -0.5406 C   0  0  0  0  0  0  0  0  0  0  0  0
   12.4731   -3.1424   -1.4483 O   0  0  0  0  0  0  0  0  0  0  0  0
   12.9458   -2.7620    0.7664 N   0  0  0  0  0  0  0  0  0  0  0  0
   11.6169   -2.3541    1.2376 C   0  0  0  0  0  0  0  0  0  0  0  0
   11.2883   -2.9465    2.1010 H   0  0  0  0  0  0  0  0  0  0  0  0
   10.8750   -2.4727    0.4393 H   0  0  0  0  0  0  0  0  0  0  0  0
   11.6244   -1.2990    1.5265 H   0  0  0  0  0  0  0  0  0  0  0  0
   14.1334   -2.6720    1.4641 C   0  0  0  0  0  0  0  0  0  0  0  0
   14.2823   -2.4373    2.7911 N   0  0  0  0  0  0  0  0  0  0  0  0
   13.4661   -2.1764    3.3401 H   0  0  0  0  0  0  0  0  0  0  0  0
   15.2087   -2.2037    3.1310 H   0  0  0  0  0  0  0  0  0  0  0  0
   15.1794   -2.8542    0.7234 N   0  0  0  0  0  4  0  0  0  0  0  0
   16.1132   -3.0062    1.1137 H   0  0  0  0  0  0  0  0  0  0  0  0
   14.3467   -5.4699   -1.7000 C   0  0  0  0  0  0  0  0  0  0  0  0
   13.4011   -5.0777   -2.0603 H   0  0  0  0  0  0  0  0  0  0  0  0
   14.6656   -6.8091   -1.9456 C   0  0  0  0  0  0  0  0  0  0  0  0
   13.9734   -7.4371   -2.5007 H   0  0  0  0  0  0  0  0  0  0  0  0
  1  2  1  0
  2  3  2  0
  3  4  1  0
  3  5  1  0
  5  6  1  0
  5  7  2  0
  7  8  1  0
  8  9  1  0
  9 10  2  0
 10 11  1  0
 10 12  1  0
 12 13  1  0
 12 14  2  0
 14 15  1  0
 14 16  1  0
 16 17  1  0
 17 18  1  0
 17 19  1  0
 17 20  1  0
 20 21  1  0
 21 22  1  0
 21 23  1  0
 21 24  1  0
 24 25  1  0
 24 26  1  0
 24 27  1  0
 20 28  1  0
 28 29  1  0
 28 30  1  0
 28 31  1  0
 31 32  1  0
 31 33  1  0
 31 34  1  0
 16 35  2  0
 35 36  1  0
  8 37  1  0
 37 38  2  0
 37 39  1  0
 39 40  1  0
 40 41  1  0
 40 42  1  0
 40 43  1  0
 39 44  1  0
 44 45  1  0
 45 46  1  0
 45 47  1  0
 44 48  2  0
 48 49  1  0
  7 50  1  0
 50 51  1  0
 50 52  2  0
 52 53  1  0
 52  2  1  0
 48  8  1  0
 35  9  1  0
M  CHG  1  48   1
M  END
>  <score>  (173) 
5.69397

$$$$

     RDKit          3D

 51 55  0  0  0  0  0  0  0  0999 V2000
   14.6793   -9.3917   -2.5041 H   0  0  0  0  0  0  0  0  0  0  0  0
   13.6232   -9.1632   -2.4284 C   0  0  0  0  0  0  0  0  0  0  0  0
   12.7490  -10.0998   -2.8105 N   0  0  0  0  0  0  0  0  0  0  0  0
   11.4484   -9.7730   -2.7964 C   0  0  0  0  0  0  0  0  0  0  0  0
   10.5459  -10.7167   -3.2750 C   0  0  0  0  0  0  0  0  0  0  0  0
   10.9455  -11.6562   -3.6273 H   0  0  0  0  0  0  0  0  0  0  0  0
    9.1869  -10.4260   -3.4183 C   0  0  0  0  0  0  0  0  0  0  0  0
    8.5099  -11.1725   -3.8267 H   0  0  0  0  0  0  0  0  0  0  0  0
    8.7271   -9.1517   -3.0768 C   0  0  0  0  0  0  0  0  0  0  0  0
    7.6871   -8.8984   -3.2550 H   0  0  0  0  0  0  0  0  0  0  0  0
    9.6156   -8.2048   -2.5467 C   0  0  0  0  0  0  0  0  0  0  0  0
    9.2599   -7.2072   -2.3228 H   0  0  0  0  0  0  0  0  0  0  0  0
   10.9774   -8.5055   -2.3982 C   0  0  0  0  0  0  0  0  0  0  0  0
   11.8974   -7.5513   -1.9592 C   0  0  0  0  0  0  0  0  0  0  0  0
   11.5623   -6.5602   -1.6680 H   0  0  0  0  0  0  0  0  0  0  0  0
   13.2577   -7.8762   -1.9952 C   0  0  0  0  0  0  0  0  0  0  0  0
   14.3140   -6.9219   -1.6240 C   0  0  0  0  0  0  0  0  0  0  0  0
   15.5920   -7.4188   -1.3338 C   0  0  0  0  0  0  0  0  0  0  0  0
   15.7737   -8.4829   -1.4319 H   0  0  0  0  0  0  0  0  0  0  0  0
   16.6042   -6.5842   -0.8532 C   0  0  0  0  0  0  0  0  0  0  0  0
   17.5710   -7.0069   -0.5836 H   0  0  0  0  0  0  0  0  0  0  0  0
   16.3515   -5.2210   -0.6841 C   0  0  0  0  0  0  0  0  0  0  0  0
   17.1341   -4.5845   -0.2751 H   0  0  0  0  0  0  0  0  0  0  0  0
   15.0949   -4.6805   -1.0048 C   0  0  0  0  0  0  0  0  0  0  0  0
   14.8037   -3.2112   -0.7289 C   0  0  0  0  0  0  0  0  0  0  0  0
   15.3873   -2.2359   -1.7439 C   0  0  0  0  0  0  0  0  0  0  0  0
   15.9323   -2.6573   -2.9695 C   0  0  0  0  0  0  0  0  0  0  0  0
   15.9781   -3.7159   -3.2048 H   0  0  0  0  0  0  0  0  0  0  0  0
   16.4163   -1.7225   -3.8957 C   0  0  0  0  0  0  0  0  0  0  0  0
   16.8379   -2.0521   -4.8391 H   0  0  0  0  0  0  0  0  0  0  0  0
   16.3583   -0.3548   -3.6126 C   0  0  0  0  0  0  0  0  0  0  0  0
   16.7307    0.3695   -4.3319 H   0  0  0  0  0  0  0  0  0  0  0  0
   15.8101    0.0792   -2.4029 C   0  0  0  0  0  0  0  0  0  0  0  0
   15.7579    1.1404   -2.1754 H   0  0  0  0  0  0  0  0  0  0  0  0
   15.3263   -0.8549   -1.4804 C   0  0  0  0  0  0  0  0  0  0  0  0
   14.8977   -0.5038   -0.5448 H   0  0  0  0  0  0  0  0  0  0  0  0
   13.2958   -2.9556   -0.5490 C   0  0  0  0  0  0  0  0  0  0  0  0
   12.4134   -3.0829   -1.3948 O   0  0  0  0  0  0  0  0  0  0  0  0
   13.0420   -2.5974    0.7589 N   0  0  0  0  0  0  0  0  0  0  0  0
   11.7340   -2.2772    1.3320 C   0  0  0  0  0  0  0  0  0  0  0  0
   11.5347   -2.8948    2.2160 H   0  0  0  0  0  0  0  0  0  0  0  0
   11.6909   -1.2216    1.6234 H   0  0  0  0  0  0  0  0  0  0  0  0
   10.9340   -2.4616    0.6043 H   0  0  0  0  0  0  0  0  0  0  0  0
   14.2535   -2.5683    1.4125 C   0  0  0  0  0  0  0  0  0  0  0  0
   14.4397   -2.2674    2.7285 N   0  0  0  0  0  0  0  0  0  0  0  0
   15.3814   -2.2870    3.1167 H   0  0  0  0  0  0  0  0  0  0  0  0
   13.6340   -2.0826    3.3246 H   0  0  0  0  0  0  0  0  0  0  0  0
   15.2453   -2.8740    0.6410 N   0  0  0  0  0  4  0  0  0  0  0  0
   16.2084   -2.9642    0.9680 H   0  0  0  0  0  0  0  0  0  0  0  0
   14.0925   -5.5412   -1.5024 C   0  0  0  0  0  0  0  0  0  0  0  0
   13.1167   -5.1344   -1.7446 H   0  0  0  0  0  0  0  0  0  0  0  0
  1  2  1  0
  2  3  2  0
  3  4  1  0
  4  5  2  0
  5  6  1  0
  5  7  1  0
  7  8  1  0
  7  9  2  0
  9 10  1  0
  9 11  1  0
 11 12  1  0
 11 13  2  0
 13 14  1  0
 14 15  1  0
 14 16  2  0
 16 17  1  0
 17 18  2  0
 18 19  1  0
 18 20  1  0
 20 21  1  0
 20 22  2  0
 22 23  1  0
 22 24  1  0
 24 25  1  0
 25 26  1  0
 26 27  2  0
 27 28  1  0
 27 29  1  0
 29 30  1  0
 29 31  2  0
 31 32  1  0
 31 33  1  0
 33 34  1  0
 33 35  2  0
 35 36  1  0
 25 37  1  0
 37 38  2  0
 37 39  1  0
 39 40  1  0
 40 41  1  0
 40 42  1  0
 40 43  1  0
 39 44  1  0
 44 45  1  0
 45 46  1  0
 45 47  1  0
 44 48  2  0
 48 49  1  0
 24 50  2  0
 50 51  1  0
 16  2  1  0
 50 17  1  0
 13  4  1  0
 48 25  1  0
 35 26  1  0
M  CHG  1  48   1
M  END
>  <score>  (174) 
5.69248

$$$$

     RDKit          3D

 48 50  0  0  0  0  0  0  0  0999 V2000
   16.2663   -8.5015   -1.8023 H   0  0  0  0  0  0  0  0  0  0  0  0
   15.9617   -7.4914   -1.5460 C   0  0  0  0  0  0  0  0  0  0  0  0
   16.8073   -6.6788   -0.7869 C   0  0  0  0  0  0  0  0  0  0  0  0
   17.7716   -7.0495   -0.4557 H   0  0  0  0  0  0  0  0  0  0  0  0
   16.4170   -5.3782   -0.4569 C   0  0  0  0  0  0  0  0  0  0  0  0
   17.0850   -4.7452    0.1211 H   0  0  0  0  0  0  0  0  0  0  0  0
   15.1723   -4.8787   -0.8721 C   0  0  0  0  0  0  0  0  0  0  0  0
   14.7740   -3.4466   -0.5550 C   0  0  0  0  0  0  0  0  0  0  0  0
   15.2909   -2.4566   -1.5809 C   0  0  0  0  0  0  0  0  0  0  0  0
   15.8802   -2.8736   -2.7847 C   0  0  0  0  0  0  0  0  0  0  0  0
   16.0128   -3.9328   -2.9778 H   0  0  0  0  0  0  0  0  0  0  0  0
   16.3138   -1.9414   -3.7361 C   0  0  0  0  0  0  0  0  0  0  0  0
   16.7772   -2.2700   -4.6596 H   0  0  0  0  0  0  0  0  0  0  0  0
   16.1506   -0.5749   -3.4956 C   0  0  0  0  0  0  0  0  0  0  0  0
   16.4763    0.1595   -4.2245 H   0  0  0  0  0  0  0  0  0  0  0  0
   15.5465   -0.1523   -2.3099 C   0  0  0  0  0  0  0  0  0  0  0  0
   15.3185    1.1759   -2.0117 N   0  0  0  0  0  0  0  0  0  0  0  0
   14.8555    1.3829   -1.1367 H   0  0  0  0  0  0  0  0  0  0  0  0
   15.7946    2.2522   -2.6973 C   0  0  0  0  0  0  0  0  0  0  0  0
   16.4137    2.1648   -3.7371 O   0  0  0  0  0  0  0  0  0  0  0  0
   15.5500    3.4524   -2.0902 N   0  0  0  0  0  0  0  0  0  0  0  0
   15.0416    3.3247   -1.2250 H   0  0  0  0  0  0  0  0  0  0  0  0
   16.6116    4.4377   -2.0477 C   0  0  0  0  0  0  0  0  0  0  0  0
   16.9245    4.7289   -3.0555 H   0  0  0  0  0  0  0  0  0  0  0  0
   16.2423    5.3353   -1.5387 H   0  0  0  0  0  0  0  0  0  0  0  0
   17.7943    3.8231   -1.3077 C   0  0  0  0  0  0  0  0  0  0  0  0
   18.0642    2.8569   -1.7531 H   0  0  0  0  0  0  0  0  0  0  0  0
   18.6636    4.4785   -1.3716 H   0  0  0  0  0  0  0  0  0  0  0  0
   17.5387    3.6709   -0.2533 H   0  0  0  0  0  0  0  0  0  0  0  0
   15.1236   -1.0803   -1.3679 C   0  0  0  0  0  0  0  0  0  0  0  0
   14.6632   -0.7067   -0.4574 H   0  0  0  0  0  0  0  0  0  0  0  0
   13.2572   -3.2317   -0.3997 C   0  0  0  0  0  0  0  0  0  0  0  0
   12.3988   -3.3624   -1.2691 O   0  0  0  0  0  0  0  0  0  0  0  0
   12.9850   -2.7655    0.8710 N   0  0  0  0  0  0  0  0  0  0  0  0
   11.6811   -2.3525    1.3949 C   0  0  0  0  0  0  0  0  0  0  0  0
   11.6936   -1.2915    1.6749 H   0  0  0  0  0  0  0  0  0  0  0  0
   11.4190   -2.9495    2.2768 H   0  0  0  0  0  0  0  0  0  0  0  0
   10.8948   -2.4931    0.6428 H   0  0  0  0  0  0  0  0  0  0  0  0
   14.1911   -2.7023    1.5374 C   0  0  0  0  0  0  0  0  0  0  0  0
   14.3859   -2.3059    2.8255 N   0  0  0  0  0  0  0  0  0  0  0  0
   13.6111   -1.9145    3.3566 H   0  0  0  0  0  0  0  0  0  0  0  0
   15.3340   -2.3100    3.2085 H   0  0  0  0  0  0  0  0  0  0  0  0
   15.1898   -3.0813    0.8126 N   0  0  0  0  0  4  0  0  0  0  0  0
   16.1545   -3.1151    1.1481 H   0  0  0  0  0  0  0  0  0  0  0  0
   14.3298   -5.7014   -1.6362 C   0  0  0  0  0  0  0  0  0  0  0  0
   13.3705   -5.3238   -1.9789 H   0  0  0  0  0  0  0  0  0  0  0  0
   14.7235   -7.0015   -1.9721 C   0  0  0  0  0  0  0  0  0  0  0  0
   14.0691   -7.6275   -2.5688 H   0  0  0  0  0  0  0  0  0  0  0  0
  1  2  1  0
  2  3  2  0
  3  4  1  0
  3  5  1  0
  5  6  1  0
  5  7  2  0
  7  8  1  0
  8  9  1  0
  9 10  2  0
 10 11  1  0
 10 12  1  0
 12 13  1  0
 12 14  2  0
 14 15  1  0
 14 16  1  0
 16 17  1  0
 17 18  1  0
 17 19  1  0
 19 20  2  0
 19 21  1  0
 21 22  1  0
 21 23  1  0
 23 24  1  0
 23 25  1  0
 23 26  1  0
 26 27  1  0
 26 28  1  0
 26 29  1  0
 16 30  2  0
 30 31  1  0
  8 32  1  0
 32 33  2  0
 32 34  1  0
 34 35  1  0
 35 36  1  0
 35 37  1  0
 35 38  1  0
 34 39  1  0
 39 40  1  0
 40 41  1  0
 40 42  1  0
 39 43  2  0
 43 44  1  0
  7 45  1  0
 45 46  1  0
 45 47  2  0
 47 48  1  0
 47  2  1  0
 43  8  1  0
 30  9  1  0
M  CHG  1  43   1
M  END
>  <score>  (175) 
5.68825

$$$$

     RDKit          3D

 58 61  0  0  0  0  0  0  0  0999 V2000
   16.0891   -8.3781   -1.6922 H   0  0  0  0  0  0  0  0  0  0  0  0
   15.8622   -7.3337   -1.5052 C   0  0  0  0  0  0  0  0  0  0  0  0
   16.7732   -6.5298   -0.8102 C   0  0  0  0  0  0  0  0  0  0  0  0
   17.7138   -6.9436   -0.4572 H   0  0  0  0  0  0  0  0  0  0  0  0
   16.4732   -5.1866   -0.5613 C   0  0  0  0  0  0  0  0  0  0  0  0
   17.1866   -4.5668   -0.0254 H   0  0  0  0  0  0  0  0  0  0  0  0
   15.2497   -4.6397   -0.9805 C   0  0  0  0  0  0  0  0  0  0  0  0
   14.8803   -3.1998   -0.6623 C   0  0  0  0  0  0  0  0  0  0  0  0
   15.4099   -2.2094   -1.6965 C   0  0  0  0  0  0  0  0  0  0  0  0
   15.9169   -2.6537   -2.9311 C   0  0  0  0  0  0  0  0  0  0  0  0
   15.9314   -3.7178   -3.1476 H   0  0  0  0  0  0  0  0  0  0  0  0
   16.4052   -1.7495   -3.8799 C   0  0  0  0  0  0  0  0  0  0  0  0
   16.7962   -2.1070   -4.8295 H   0  0  0  0  0  0  0  0  0  0  0  0
   16.3889   -0.3806   -3.6000 C   0  0  0  0  0  0  0  0  0  0  0  0
   16.7816    0.3304   -4.3189 H   0  0  0  0  0  0  0  0  0  0  0  0
   15.8565    0.0991   -2.4011 C   0  0  0  0  0  0  0  0  0  0  0  0
   15.8518    1.4573   -2.2128 O   0  0  0  0  0  0  0  0  0  0  0  0
   15.1445    1.9498   -1.0630 C   0  0  0  0  0  0  0  0  0  0  0  0
   14.0883    1.6627   -1.1141 H   0  0  0  0  0  0  0  0  0  0  0  0
   15.5833    1.5208   -0.1547 H   0  0  0  0  0  0  0  0  0  0  0  0
   15.2527    3.4774   -1.0115 C   0  0  0  0  0  0  0  0  0  0  0  0
   16.2998    3.7576   -1.1830 H   0  0  0  0  0  0  0  0  0  0  0  0
   14.9825    3.8259   -0.0100 H   0  0  0  0  0  0  0  0  0  0  0  0
   14.3857    4.1173   -2.0289 N   0  0  0  0  0  0  0  0  0  0  0  0
   14.9525    5.3208   -2.6638 C   0  0  0  0  0  0  0  0  0  0  0  0
   16.0074    5.1622   -2.9074 H   0  0  0  0  0  0  0  0  0  0  0  0
   14.9108    6.1361   -1.9441 H   0  0  0  0  0  0  0  0  0  0  0  0
   14.1818    5.6833   -3.9461 C   0  0  0  0  0  0  0  0  0  0  0  0
   14.5660    6.6125   -4.3722 H   0  0  0  0  0  0  0  0  0  0  0  0
   14.3056    4.9130   -4.7078 H   0  0  0  0  0  0  0  0  0  0  0  0
   12.6869    5.7921   -3.6696 C   0  0  0  0  0  0  0  0  0  0  0  0
   12.4809    6.5561   -2.9122 H   0  0  0  0  0  0  0  0  0  0  0  0
   12.1553    6.0501   -4.5960 H   0  0  0  0  0  0  0  0  0  0  0  0
   12.2145    4.4370   -3.1411 C   0  0  0  0  0  0  0  0  0  0  0  0
   12.4484    3.6518   -3.8702 H   0  0  0  0  0  0  0  0  0  0  0  0
   11.1317    4.4677   -2.9912 H   0  0  0  0  0  0  0  0  0  0  0  0
   12.9176    4.0859   -1.8252 C   0  0  0  0  0  0  0  0  0  0  0  0
   12.6057    3.0869   -1.5034 H   0  0  0  0  0  0  0  0  0  0  0  0
   12.6079    4.7855   -1.0420 H   0  0  0  0  0  0  0  0  0  0  0  0
   15.3580   -0.8204   -1.4616 C   0  0  0  0  0  0  0  0  0  0  0  0
   14.9361   -0.4333   -0.5386 H   0  0  0  0  0  0  0  0  0  0  0  0
   13.3584   -3.0269   -0.4956 C   0  0  0  0  0  0  0  0  0  0  0  0
   12.4889   -3.2346   -1.3408 O   0  0  0  0  0  0  0  0  0  0  0  0
   13.0854   -2.6243    0.7941 N   0  0  0  0  0  0  0  0  0  0  0  0
   11.7696   -2.2864    1.3322 C   0  0  0  0  0  0  0  0  0  0  0  0
   10.9844   -2.4770    0.5907 H   0  0  0  0  0  0  0  0  0  0  0  0
   11.5466   -2.8868    2.2219 H   0  0  0  0  0  0  0  0  0  0  0  0
   11.7332   -1.2245    1.5979 H   0  0  0  0  0  0  0  0  0  0  0  0
   14.2921   -2.5373    1.4587 C   0  0  0  0  0  0  0  0  0  0  0  0
   14.4736   -2.1722    2.7548 N   0  0  0  0  0  0  0  0  0  0  0  0
   13.6669   -2.0975    3.3707 H   0  0  0  0  0  0  0  0  0  0  0  0
   15.4101   -2.2614    3.1499 H   0  0  0  0  0  0  0  0  0  0  0  0
   15.2976   -2.8576    0.7133 N   0  0  0  0  0  4  0  0  0  0  0  0
   16.2479   -2.9943    1.0716 H   0  0  0  0  0  0  0  0  0  0  0  0
   14.3615   -5.4484   -1.7075 C   0  0  0  0  0  0  0  0  0  0  0  0
   13.4239   -5.0328   -2.0637 H   0  0  0  0  0  0  0  0  0  0  0  0
   14.6597   -6.7880   -1.9664 C   0  0  0  0  0  0  0  0  0  0  0  0
   13.9499   -7.3980   -2.5176 H   0  0  0  0  0  0  0  0  0  0  0  0
  1  2  1  0
  2  3  2  0
  3  4  1  0
  3  5  1  0
  5  6  1  0
  5  7  2  0
  7  8  1  0
  8  9  1  0
  9 10  2  0
 10 11  1  0
 10 12  1  0
 12 13  1  0
 12 14  2  0
 14 15  1  0
 14 16  1  0
 16 17  1  0
 17 18  1  0
 18 19  1  0
 18 20  1  0
 18 21  1  0
 21 22  1  0
 21 23  1  0
 21 24  1  0
 24 25  1  0
 25 26  1  0
 25 27  1  0
 25 28  1  0
 28 29  1  0
 28 30  1  0
 28 31  1  0
 31 32  1  0
 31 33  1  0
 31 34  1  0
 34 35  1  0
 34 36  1  0
 34 37  1  0
 37 38  1  0
 37 39  1  0
 16 40  2  0
 40 41  1  0
  8 42  1  0
 42 43  2  0
 42 44  1  0
 44 45  1  0
 45 46  1  0
 45 47  1  0
 45 48  1  0
 44 49  1  0
 49 50  1  0
 50 51  1  0
 50 52  1  0
 49 53  2  0
 53 54  1  0
  7 55  1  0
 55 56  1  0
 55 57  2  0
 57 58  1  0
 57  2  1  0
 53  8  1  0
 40  9  1  0
 37 24  1  0
M  CHG  1  53   1
M  END
>  <score>  (176) 
5.6856

$$$$

     RDKit          3D

 48 51  0  0  0  0  0  0  0  0999 V2000
   16.0993   -8.4219   -1.6693 H   0  0  0  0  0  0  0  0  0  0  0  0
   15.8642   -7.3769   -1.4991 C   0  0  0  0  0  0  0  0  0  0  0  0
   16.7636   -6.5582   -0.8097 C   0  0  0  0  0  0  0  0  0  0  0  0
   17.7029   -6.9593   -0.4448 H   0  0  0  0  0  0  0  0  0  0  0  0
   16.4516   -5.2174   -0.5768 C   0  0  0  0  0  0  0  0  0  0  0  0
   17.1496   -4.5833   -0.0353 H   0  0  0  0  0  0  0  0  0  0  0  0
   15.2281   -4.6844   -1.0116 C   0  0  0  0  0  0  0  0  0  0  0  0
   14.8667   -3.2392   -0.7047 C   0  0  0  0  0  0  0  0  0  0  0  0
   15.4031   -2.2510   -1.7357 C   0  0  0  0  0  0  0  0  0  0  0  0
   15.9369   -2.6653   -2.9706 C   0  0  0  0  0  0  0  0  0  0  0  0
   15.9892   -3.7247   -3.2023 H   0  0  0  0  0  0  0  0  0  0  0  0
   16.4110   -1.7279   -3.9028 C   0  0  0  0  0  0  0  0  0  0  0  0
   16.8380   -2.0577   -4.8471 H   0  0  0  0  0  0  0  0  0  0  0  0
   16.3361   -0.3606   -3.6083 C   0  0  0  0  0  0  0  0  0  0  0  0
   16.6987    0.3862   -4.3021 H   0  0  0  0  0  0  0  0  0  0  0  0
   15.7851    0.0680   -2.4058 C   0  0  0  0  0  0  0  0  0  0  0  0
   15.6638    1.4037   -2.0723 N   0  0  0  0  0  0  0  0  0  0  0  0
   15.2892    1.6026   -1.1484 H   0  0  0  0  0  0  0  0  0  0  0  0
   16.0094    2.5421   -2.9275 C   0  0  0  0  0  0  0  0  0  0  0  0
   15.3906    2.5739   -3.8303 H   0  0  0  0  0  0  0  0  0  0  0  0
   17.0571    2.4649   -3.2307 H   0  0  0  0  0  0  0  0  0  0  0  0
   15.7822    3.7731   -2.0522 C   0  0  0  0  0  0  0  0  0  0  0  0
   16.4101    3.7385   -1.1554 H   0  0  0  0  0  0  0  0  0  0  0  0
   15.3807    5.1339   -2.6421 C   0  0  0  0  0  0  0  0  0  0  0  0
   15.7219    6.0576   -2.1708 H   0  0  0  0  0  0  0  0  0  0  0  0
   15.2078    5.2144   -3.7159 H   0  0  0  0  0  0  0  0  0  0  0  0
   14.3598    4.3162   -1.8481 C   0  0  0  0  0  0  0  0  0  0  0  0
   13.5251    3.8907   -2.4111 H   0  0  0  0  0  0  0  0  0  0  0  0
   14.0839    4.6549   -0.8441 H   0  0  0  0  0  0  0  0  0  0  0  0
   15.3213   -0.8696   -1.4863 C   0  0  0  0  0  0  0  0  0  0  0  0
   14.8922   -0.5090   -0.5584 H   0  0  0  0  0  0  0  0  0  0  0  0
   13.3501   -3.0270   -0.5397 C   0  0  0  0  0  0  0  0  0  0  0  0
   12.4850   -3.1886   -1.3970 O   0  0  0  0  0  0  0  0  0  0  0  0
   13.0757   -2.6360    0.7548 N   0  0  0  0  0  0  0  0  0  0  0  0
   11.7633   -2.2937    1.3041 C   0  0  0  0  0  0  0  0  0  0  0  0
   10.9719   -2.4756    0.5677 H   0  0  0  0  0  0  0  0  0  0  0  0
   11.7307   -1.2359    1.5856 H   0  0  0  0  0  0  0  0  0  0  0  0
   11.5461   -2.8984    2.1911 H   0  0  0  0  0  0  0  0  0  0  0  0
   14.2796   -2.5729    1.4207 C   0  0  0  0  0  0  0  0  0  0  0  0
   14.4552   -2.2306    2.7257 N   0  0  0  0  0  0  0  0  0  0  0  0
   15.3899   -2.2845    3.1297 H   0  0  0  0  0  0  0  0  0  0  0  0
   13.6440   -2.0966    3.3235 H   0  0  0  0  0  0  0  0  0  0  0  0
   15.2833   -2.8906    0.6710 N   0  0  0  0  0  4  0  0  0  0  0  0
   16.2424   -2.9760    1.0141 H   0  0  0  0  0  0  0  0  0  0  0  0
   14.3430   -5.5067   -1.7294 C   0  0  0  0  0  0  0  0  0  0  0  0
   13.4003   -5.1011   -2.0883 H   0  0  0  0  0  0  0  0  0  0  0  0
   14.6580   -6.8470   -1.9673 C   0  0  0  0  0  0  0  0  0  0  0  0
   13.9575   -7.4743   -2.5074 H   0  0  0  0  0  0  0  0  0  0  0  0
  1  2  1  0
  2  3  2  0
  3  4  1  0
  3  5  1  0
  5  6  1  0
  5  7  2  0
  7  8  1  0
  8  9  1  0
  9 10  2  0
 10 11  1  0
 10 12  1  0
 12 13  1  0
 12 14  2  0
 14 15  1  0
 14 16  1  0
 16 17  1  0
 17 18  1  0
 17 19  1  0
 19 20  1  0
 19 21  1  0
 19 22  1  0
 22 23  1  0
 22 24  1  0
 24 25  1  0
 24 26  1  0
 24 27  1  0
 27 28  1  0
 27 29  1  0
 16 30  2  0
 30 31  1  0
  8 32  1  0
 32 33  2  0
 32 34  1  0
 34 35  1  0
 35 36  1  0
 35 37  1  0
 35 38  1  0
 34 39  1  0
 39 40  1  0
 40 41  1  0
 40 42  1  0
 39 43  2  0
 43 44  1  0
  7 45  1  0
 45 46  1  0
 45 47  2  0
 47 48  1  0
 47  2  1  0
 43  8  1  0
 30  9  1  0
 27 22  1  0
M  CHG  1  43   1
M  END
>  <score>  (177) 
5.6806

$$$$

     RDKit          3D

 47 50  0  0  0  0  0  0  0  0999 V2000
   14.0354  -12.4353    0.8053 H   0  0  0  0  0  0  0  0  0  0  0  0
   13.9111  -11.4657    0.3386 C   0  0  0  0  0  0  0  0  0  0  0  0
   13.9514  -11.2386   -1.0125 O   0  0  0  0  0  0  0  0  0  0  0  0
   13.7947   -9.8733   -1.2163 C   0  0  0  0  0  0  0  0  0  0  0  0
   13.7249   -9.1607   -2.5344 C   0  0  0  0  0  0  0  0  0  0  0  0
   13.3504   -9.6978   -3.5667 O   0  0  0  0  0  0  0  0  0  0  0  0
   13.7675   -7.7883   -2.6576 N   0  0  0  0  0  0  0  0  0  0  0  0
   13.3085   -7.4260   -3.4850 H   0  0  0  0  0  0  0  0  0  0  0  0
   14.6202   -6.9474   -1.9471 C   0  0  0  0  0  0  0  0  0  0  0  0
   15.8284   -7.4406   -1.4552 C   0  0  0  0  0  0  0  0  0  0  0  0
   16.0705   -8.4870   -1.6229 H   0  0  0  0  0  0  0  0  0  0  0  0
   16.7167   -6.5869   -0.7959 C   0  0  0  0  0  0  0  0  0  0  0  0
   17.6649   -6.9664   -0.4249 H   0  0  0  0  0  0  0  0  0  0  0  0
   16.3757   -5.2439   -0.6100 C   0  0  0  0  0  0  0  0  0  0  0  0
   17.0587   -4.5950   -0.0761 H   0  0  0  0  0  0  0  0  0  0  0  0
   15.1626   -4.7182   -1.0773 C   0  0  0  0  0  0  0  0  0  0  0  0
   14.8150   -3.2567   -0.7786 C   0  0  0  0  0  0  0  0  0  0  0  0
   15.3841   -2.2531   -1.7796 C   0  0  0  0  0  0  0  0  0  0  0  0
   15.9428   -2.6482   -3.0083 C   0  0  0  0  0  0  0  0  0  0  0  0
   15.9985   -3.7037   -3.2515 H   0  0  0  0  0  0  0  0  0  0  0  0
   16.4230   -1.6983   -3.9233 C   0  0  0  0  0  0  0  0  0  0  0  0
   16.8528   -2.0089   -4.8695 H   0  0  0  0  0  0  0  0  0  0  0  0
   16.3439   -0.3356   -3.6263 C   0  0  0  0  0  0  0  0  0  0  0  0
   16.7151    0.4028   -4.3334 H   0  0  0  0  0  0  0  0  0  0  0  0
   15.7934    0.0717   -2.4098 C   0  0  0  0  0  0  0  0  0  0  0  0
   15.7340    1.1296   -2.1730 H   0  0  0  0  0  0  0  0  0  0  0  0
   15.3181   -0.8762   -1.4964 C   0  0  0  0  0  0  0  0  0  0  0  0
   14.8876   -0.5359   -0.5583 H   0  0  0  0  0  0  0  0  0  0  0  0
   13.2967   -3.0441   -0.5999 C   0  0  0  0  0  0  0  0  0  0  0  0
   12.4368   -3.1156   -1.4735 O   0  0  0  0  0  0  0  0  0  0  0  0
   13.0243   -2.6810    0.7059 N   0  0  0  0  0  0  0  0  0  0  0  0
   11.7195   -2.3139    1.2689 C   0  0  0  0  0  0  0  0  0  0  0  0
   10.9159   -2.4766    0.5354 H   0  0  0  0  0  0  0  0  0  0  0  0
   11.5033   -2.9248    2.1565 H   0  0  0  0  0  0  0  0  0  0  0  0
   11.7085   -1.2534    1.5587 H   0  0  0  0  0  0  0  0  0  0  0  0
   14.2340   -2.6280    1.3663 C   0  0  0  0  0  0  0  0  0  0  0  0
   14.4009   -2.3176    2.6828 N   0  0  0  0  0  0  0  0  0  0  0  0
   15.3385   -2.3434    3.0874 H   0  0  0  0  0  0  0  0  0  0  0  0
   13.5876   -2.1243    3.2649 H   0  0  0  0  0  0  0  0  0  0  0  0
   15.2356   -2.9167    0.6019 N   0  0  0  0  0  4  0  0  0  0  0  0
   16.2062   -2.9315    0.9250 H   0  0  0  0  0  0  0  0  0  0  0  0
   14.2957   -5.5924   -1.7753 C   0  0  0  0  0  0  0  0  0  0  0  0
   13.3476   -5.2455   -2.1725 H   0  0  0  0  0  0  0  0  0  0  0  0
   13.6240   -9.2621    0.0043 C   0  0  0  0  0  0  0  0  0  0  0  0
   13.4332   -8.2053    0.1785 H   0  0  0  0  0  0  0  0  0  0  0  0
   13.7048  -10.2975    0.9981 C   0  0  0  0  0  0  0  0  0  0  0  0
   13.6326  -10.1874    2.0710 H   0  0  0  0  0  0  0  0  0  0  0  0
  1  2  1  0
  2  3  1  0
  3  4  1  0
  4  5  1  0
  5  6  2  0
  5  7  1  0
  7  8  1  0
  7  9  1  0
  9 10  2  0
 10 11  1  0
 10 12  1  0
 12 13  1  0
 12 14  2  0
 14 15  1  0
 14 16  1  0
 16 17  1  0
 17 18  1  0
 18 19  2  0
 19 20  1  0
 19 21  1  0
 21 22  1  0
 21 23  2  0
 23 24  1  0
 23 25  1  0
 25 26  1  0
 25 27  2  0
 27 28  1  0
 17 29  1  0
 29 30  2  0
 29 31  1  0
 31 32  1  0
 32 33  1  0
 32 34  1  0
 32 35  1  0
 31 36  1  0
 36 37  1  0
 37 38  1  0
 37 39  1  0
 36 40  2  0
 40 41  1  0
 16 42  2  0
 42 43  1  0
  4 44  2  0
 44 45  1  0
 44 46  1  0
 46 47  1  0
 46  2  2  0
 42  9  1  0
 40 17  1  0
 27 18  1  0
M  CHG  1  40   1
M  END
>  <score>  (178) 
5.68018

$$$$

     RDKit          3D

 51 54  0  0  0  0  0  0  0  0999 V2000
   16.2781   -8.6452   -1.8952 H   0  0  0  0  0  0  0  0  0  0  0  0
   15.9836   -7.6375   -1.6134 C   0  0  0  0  0  0  0  0  0  0  0  0
   16.8402   -6.8446   -0.8426 C   0  0  0  0  0  0  0  0  0  0  0  0
   17.8074   -7.2381   -0.5362 H   0  0  0  0  0  0  0  0  0  0  0  0
   16.4519   -5.5490   -0.4659 C   0  0  0  0  0  0  0  0  0  0  0  0
   17.1354   -4.9523    0.1294 H   0  0  0  0  0  0  0  0  0  0  0  0
   15.2021   -5.0249   -0.8463 C   0  0  0  0  0  0  0  0  0  0  0  0
   14.7625   -3.6089   -0.4531 C   0  0  0  0  0  0  0  0  0  0  0  0
   15.1433   -2.5480   -1.4827 C   0  0  0  0  0  0  0  0  0  0  0  0
   15.9253   -2.8561   -2.6048 C   0  0  0  0  0  0  0  0  0  0  0  0
   16.3345   -3.8541   -2.7114 H   0  0  0  0  0  0  0  0  0  0  0  0
   16.1707   -1.9063   -3.5989 C   0  0  0  0  0  0  0  0  0  0  0  0
   16.7335   -2.1663   -4.4897 H   0  0  0  0  0  0  0  0  0  0  0  0
   15.6951   -0.6046   -3.4411 C   0  0  0  0  0  0  0  0  0  0  0  0
   15.9158    0.1271   -4.2160 H   0  0  0  0  0  0  0  0  0  0  0  0
   14.9611   -0.2431   -2.2989 C   0  0  0  0  0  0  0  0  0  0  0  0
   14.5728    1.1662   -2.1047 C   0  0  0  0  0  0  0  0  0  0  0  0
   13.3871    1.4560   -1.9497 O   0  0  0  0  0  0  0  0  0  0  0  0
   15.5452    2.1601   -2.2506 N   0  0  0  0  0  0  0  0  0  0  0  0
   15.1606    3.5587   -2.5026 C   0  0  0  0  0  0  0  0  0  0  0  0
   14.8319    3.6473   -3.5436 H   0  0  0  0  0  0  0  0  0  0  0  0
   14.3150    3.8205   -1.8599 H   0  0  0  0  0  0  0  0  0  0  0  0
   16.2847    4.5766   -2.2391 C   0  0  0  0  0  0  0  0  0  0  0  0
   16.2521    4.8883   -1.1867 H   0  0  0  0  0  0  0  0  0  0  0  0
   16.1041    5.4562   -2.8637 H   0  0  0  0  0  0  0  0  0  0  0  0
   17.5876    4.0638   -2.5487 O   0  0  0  0  0  0  0  0  0  0  0  0
   17.8621    2.8518   -1.8512 C   0  0  0  0  0  0  0  0  0  0  0  0
   17.6922    2.9712   -0.7699 H   0  0  0  0  0  0  0  0  0  0  0  0
   18.9026    2.5844   -2.0326 H   0  0  0  0  0  0  0  0  0  0  0  0
   16.9508    1.7626   -2.3890 C   0  0  0  0  0  0  0  0  0  0  0  0
   17.1423    0.8473   -1.8221 H   0  0  0  0  0  0  0  0  0  0  0  0
   17.1868    1.5500   -3.4393 H   0  0  0  0  0  0  0  0  0  0  0  0
   14.6641   -1.2280   -1.3401 C   0  0  0  0  0  0  0  0  0  0  0  0
   14.0819   -0.9648   -0.4594 H   0  0  0  0  0  0  0  0  0  0  0  0
   13.2468   -3.5147   -0.1839 C   0  0  0  0  0  0  0  0  0  0  0  0
   12.3411   -3.8080   -0.9631 O   0  0  0  0  0  0  0  0  0  0  0  0
   13.0323   -2.9118    1.0403 N   0  0  0  0  0  0  0  0  0  0  0  0
   11.7786   -2.3028    1.5004 C   0  0  0  0  0  0  0  0  0  0  0  0
   10.9848   -2.4243    0.7535 H   0  0  0  0  0  0  0  0  0  0  0  0
   11.4420   -2.7665    2.4347 H   0  0  0  0  0  0  0  0  0  0  0  0
   11.9057   -1.2271    1.6764 H   0  0  0  0  0  0  0  0  0  0  0  0
   14.2734   -2.7314    1.6114 C   0  0  0  0  0  0  0  0  0  0  0  0
   14.5014   -2.0941    2.7958 N   0  0  0  0  0  0  0  0  0  0  0  0
   13.7054   -1.9392    3.4120 H   0  0  0  0  0  0  0  0  0  0  0  0
   15.4272   -2.1919    3.2075 H   0  0  0  0  0  0  0  0  0  0  0  0
   15.2382   -3.1971    0.8832 N   0  0  0  0  0  4  0  0  0  0  0  0
   16.2228   -3.0529    1.1104 H   0  0  0  0  0  0  0  0  0  0  0  0
   14.3605   -5.8374   -1.6314 C   0  0  0  0  0  0  0  0  0  0  0  0
   13.3954   -5.4661   -1.9582 H   0  0  0  0  0  0  0  0  0  0  0  0
   14.7430   -7.1317   -2.0118 C   0  0  0  0  0  0  0  0  0  0  0  0
   14.0770   -7.7473   -2.6128 H   0  0  0  0  0  0  0  0  0  0  0  0
  1  2  1  0
  2  3  2  0
  3  4  1  0
  3  5  1  0
  5  6  1  0
  5  7  2  0
  7  8  1  0
  8  9  1  0
  9 10  2  0
 10 11  1  0
 10 12  1  0
 12 13  1  0
 12 14  2  0
 14 15  1  0
 14 16  1  0
 16 17  1  0
 17 18  2  0
 17 19  1  0
 19 20  1  0
 20 21  1  0
 20 22  1  0
 20 23  1  0
 23 24  1  0
 23 25  1  0
 23 26  1  0
 26 27  1  0
 27 28  1  0
 27 29  1  0
 27 30  1  0
 30 31  1  0
 30 32  1  0
 16 33  2  0
 33 34  1  0
  8 35  1  0
 35 36  2  0
 35 37  1  0
 37 38  1  0
 38 39  1  0
 38 40  1  0
 38 41  1  0
 37 42  1  0
 42 43  1  0
 43 44  1  0
 43 45  1  0
 42 46  2  0
 46 47  1  0
  7 48  1  0
 48 49  1  0
 48 50  2  0
 50 51  1  0
 50  2  1  0
 46  8  1  0
 33  9  1  0
 30 19  1  0
M  CHG  1  46   1
M  END
>  <score>  (179) 
5.67869

$$$$

     RDKit          3D

 54 57  0  0  0  0  0  0  0  0999 V2000
   16.1035   -8.4469   -1.6622 H   0  0  0  0  0  0  0  0  0  0  0  0
   15.8644   -7.4028   -1.4950 C   0  0  0  0  0  0  0  0  0  0  0  0
   16.7672   -6.5826   -0.8079 C   0  0  0  0  0  0  0  0  0  0  0  0
   17.7117   -6.9725   -0.4411 H   0  0  0  0  0  0  0  0  0  0  0  0
   16.4497   -5.2451   -0.5779 C   0  0  0  0  0  0  0  0  0  0  0  0
   17.1473   -4.6018   -0.0472 H   0  0  0  0  0  0  0  0  0  0  0  0
   15.2227   -4.7275   -1.0088 C   0  0  0  0  0  0  0  0  0  0  0  0
   14.8550   -3.3049   -0.6891 C   0  0  0  0  0  0  0  0  0  0  0  0
   15.3845   -2.3192   -1.7031 C   0  0  0  0  0  0  0  0  0  0  0  0
   15.9758   -2.6617   -2.9388 C   0  0  0  0  0  0  0  0  0  0  0  0
   16.1215   -3.7043   -3.2125 H   0  0  0  0  0  0  0  0  0  0  0  0
   16.3784   -1.6510   -3.8267 C   0  0  0  0  0  0  0  0  0  0  0  0
   16.8704   -1.8990   -4.7655 H   0  0  0  0  0  0  0  0  0  0  0  0
   16.1259   -0.3111   -3.5009 C   0  0  0  0  0  0  0  0  0  0  0  0
   16.4003    0.4894   -4.1761 H   0  0  0  0  0  0  0  0  0  0  0  0
   15.4996    0.0124   -2.2965 C   0  0  0  0  0  0  0  0  0  0  0  0
   15.1240    1.2809   -1.9476 N   0  0  0  0  0  0  0  0  0  0  0  0
   15.3553    1.5670   -1.0092 H   0  0  0  0  0  0  0  0  0  0  0  0
   15.4734    2.5002   -3.0346 S   0  0  0  0  0  0  0  0  0  0  0  0
   14.9724    3.7302   -2.4107 O   0  0  0  0  0  0  0  0  0  0  0  0
   16.9246    2.5207   -3.2138 O   0  0  0  0  0  0  0  0  0  0  0  0
   14.5664    2.0333   -4.5517 C   0  0  0  0  0  0  0  0  0  0  0  0
   15.2105    1.9874   -5.8016 C   0  0  0  0  0  0  0  0  0  0  0  0
   16.2845    2.1245   -5.8937 H   0  0  0  0  0  0  0  0  0  0  0  0
   14.4621    1.8529   -6.9719 C   0  0  0  0  0  0  0  0  0  0  0  0
   14.9625    1.8690   -7.9320 H   0  0  0  0  0  0  0  0  0  0  0  0
   13.0709    1.7582   -6.9208 C   0  0  0  0  0  0  0  0  0  0  0  0
   12.2376    1.7979   -8.1743 C   0  0  0  0  0  0  0  0  0  0  0  0
   11.1892    1.9853   -7.9285 H   0  0  0  0  0  0  0  0  0  0  0  0
   12.3061    0.8633   -8.7330 H   0  0  0  0  0  0  0  0  0  0  0  0
   12.5728    2.6098   -8.8217 H   0  0  0  0  0  0  0  0  0  0  0  0
   12.4494    1.6961   -5.6727 C   0  0  0  0  0  0  0  0  0  0  0  0
   11.3729    1.5888   -5.6200 H   0  0  0  0  0  0  0  0  0  0  0  0
   13.1862    1.8028   -4.4950 C   0  0  0  0  0  0  0  0  0  0  0  0
   12.6529    1.7455   -3.5490 H   0  0  0  0  0  0  0  0  0  0  0  0
   15.1713   -0.9751   -1.4055 C   0  0  0  0  0  0  0  0  0  0  0  0
   14.6901   -0.6940   -0.4753 H   0  0  0  0  0  0  0  0  0  0  0  0
   13.3374   -3.0878   -0.5342 C   0  0  0  0  0  0  0  0  0  0  0  0
   12.4816   -3.1921   -1.4116 O   0  0  0  0  0  0  0  0  0  0  0  0
   13.0675   -2.6660    0.7535 N   0  0  0  0  0  0  0  0  0  0  0  0
   11.7588   -2.3034    1.2934 C   0  0  0  0  0  0  0  0  0  0  0  0
   11.5348   -2.9064    2.1810 H   0  0  0  0  0  0  0  0  0  0  0  0
   11.7345   -1.2427    1.5702 H   0  0  0  0  0  0  0  0  0  0  0  0
   10.9685   -2.4795    0.5539 H   0  0  0  0  0  0  0  0  0  0  0  0
   14.2704   -2.6041    1.4248 C   0  0  0  0  0  0  0  0  0  0  0  0
   14.4467   -2.2192    2.7208 N   0  0  0  0  0  0  0  0  0  0  0  0
   15.3773   -2.3012    3.1287 H   0  0  0  0  0  0  0  0  0  0  0  0
   13.6325   -2.1033    3.3216 H   0  0  0  0  0  0  0  0  0  0  0  0
   15.2709   -2.9587    0.6891 N   0  0  0  0  0  4  0  0  0  0  0  0
   16.2386   -2.9963    1.0193 H   0  0  0  0  0  0  0  0  0  0  0  0
   14.3404   -5.5399   -1.7328 C   0  0  0  0  0  0  0  0  0  0  0  0
   13.4036   -5.1280   -2.0982 H   0  0  0  0  0  0  0  0  0  0  0  0
   14.6563   -6.8780   -1.9707 C   0  0  0  0  0  0  0  0  0  0  0  0
   13.9540   -7.5015   -2.5150 H   0  0  0  0  0  0  0  0  0  0  0  0
  1  2  1  0
  2  3  2  0
  3  4  1  0
  3  5  1  0
  5  6  1  0
  5  7  2  0
  7  8  1  0
  8  9  1  0
  9 10  2  0
 10 11  1  0
 10 12  1  0
 12 13  1  0
 12 14  2  0
 14 15  1  0
 14 16  1  0
 16 17  1  0
 17 18  1  0
 17 19  1  0
 19 20  2  0
 19 21  2  0
 19 22  1  0
 22 23  2  0
 23 24  1  0
 23 25  1  0
 25 26  1  0
 25 27  2  0
 27 28  1  0
 28 29  1  0
 28 30  1  0
 28 31  1  0
 27 32  1  0
 32 33  1  0
 32 34  2  0
 34 35  1  0
 16 36  2  0
 36 37  1  0
  8 38  1  0
 38 39  2  0
 38 40  1  0
 40 41  1  0
 41 42  1  0
 41 43  1  0
 41 44  1  0
 40 45  1  0
 45 46  1  0
 46 47  1  0
 46 48  1  0
 45 49  2  0
 49 50  1  0
  7 51  1  0
 51 52  1  0
 51 53  2  0
 53 54  1  0
 53  2  1  0
 49  8  1  0
 36  9  1  0
 34 22  1  0
M  CHG  1  49   1
M  END
>  <score>  (180) 
5.67351

$$$$

     RDKit          3D

 51 53  0  0  0  0  0  0  0  0999 V2000
   16.0966   -8.4404   -1.6305 H   0  0  0  0  0  0  0  0  0  0  0  0
   15.8565   -7.3909   -1.4879 C   0  0  0  0  0  0  0  0  0  0  0  0
   16.7477   -6.5582   -0.8036 C   0  0  0  0  0  0  0  0  0  0  0  0
   17.6814   -6.9519   -0.4124 H   0  0  0  0  0  0  0  0  0  0  0  0
   16.4272   -5.2132   -0.5975 C   0  0  0  0  0  0  0  0  0  0  0  0
   17.1089   -4.5678   -0.0507 H   0  0  0  0  0  0  0  0  0  0  0  0
   15.2086   -4.6865   -1.0513 C   0  0  0  0  0  0  0  0  0  0  0  0
   14.8383   -3.2421   -0.7521 C   0  0  0  0  0  0  0  0  0  0  0  0
   15.3857   -2.2451   -1.7646 C   0  0  0  0  0  0  0  0  0  0  0  0
   15.9331   -2.6504   -2.9932 C   0  0  0  0  0  0  0  0  0  0  0  0
   15.9879   -3.7084   -3.2265 H   0  0  0  0  0  0  0  0  0  0  0  0
   16.4103   -1.7087   -3.9153 C   0  0  0  0  0  0  0  0  0  0  0  0
   16.8475   -2.0267   -4.8555 H   0  0  0  0  0  0  0  0  0  0  0  0
   16.3225   -0.3452   -3.6293 C   0  0  0  0  0  0  0  0  0  0  0  0
   16.7165    0.3911   -4.3257 H   0  0  0  0  0  0  0  0  0  0  0  0
   15.7201    0.0773   -2.4401 C   0  0  0  0  0  0  0  0  0  0  0  0
   15.6021    1.5422   -2.1302 C   0  0  0  0  0  0  0  0  0  0  0  0
   15.5733    2.1238   -3.0540 H   0  0  0  0  0  0  0  0  0  0  0  0
   14.6800    1.7559   -1.5790 H   0  0  0  0  0  0  0  0  0  0  0  0
   16.8258    1.9228   -1.3060 C   0  0  0  0  0  0  0  0  0  0  0  0
   17.7221    1.6610   -1.8766 H   0  0  0  0  0  0  0  0  0  0  0  0
   16.8148    1.3273   -0.3887 H   0  0  0  0  0  0  0  0  0  0  0  0
   16.8916    3.4106   -0.9412 C   0  0  0  0  0  0  0  0  0  0  0  0
   17.8733    3.5995   -0.5177 H   0  0  0  0  0  0  0  0  0  0  0  0
   15.8486    3.7733    0.1104 C   0  0  0  0  0  0  0  0  0  0  0  0
   14.8436    3.7496   -0.3146 H   0  0  0  0  0  0  0  0  0  0  0  0
   15.8813    3.0769    0.9534 H   0  0  0  0  0  0  0  0  0  0  0  0
   16.0449    4.7846    0.4774 H   0  0  0  0  0  0  0  0  0  0  0  0
   16.7156    4.3073   -2.1641 C   0  0  0  0  0  0  0  0  0  0  0  0
   17.6376    4.2952   -2.7545 H   0  0  0  0  0  0  0  0  0  0  0  0
   15.8822    3.9447   -2.7687 H   0  0  0  0  0  0  0  0  0  0  0  0
   16.4745    5.3357   -1.8797 H   0  0  0  0  0  0  0  0  0  0  0  0
   15.2822   -0.8693   -1.5080 C   0  0  0  0  0  0  0  0  0  0  0  0
   14.8647   -0.5215   -0.5672 H   0  0  0  0  0  0  0  0  0  0  0  0
   13.3190   -3.0427   -0.5830 C   0  0  0  0  0  0  0  0  0  0  0  0
   12.4529   -3.1678   -1.4479 O   0  0  0  0  0  0  0  0  0  0  0  0
   13.0438   -2.6832    0.7207 N   0  0  0  0  0  0  0  0  0  0  0  0
   11.7408   -2.3150    1.2798 C   0  0  0  0  0  0  0  0  0  0  0  0
   10.9367   -2.4777    0.5549 H   0  0  0  0  0  0  0  0  0  0  0  0
   11.5107   -2.9101    2.1695 H   0  0  0  0  0  0  0  0  0  0  0  0
   11.7289   -1.2582    1.5635 H   0  0  0  0  0  0  0  0  0  0  0  0
   14.2515   -2.6121    1.3808 C   0  0  0  0  0  0  0  0  0  0  0  0
   14.4279   -2.2692    2.6842 N   0  0  0  0  0  0  0  0  0  0  0  0
   15.3657   -2.3106    3.0845 H   0  0  0  0  0  0  0  0  0  0  0  0
   13.6153   -2.1188    3.2781 H   0  0  0  0  0  0  0  0  0  0  0  0
   15.2533   -2.9083    0.6233 N   0  0  0  0  0  4  0  0  0  0  0  0
   16.2139   -2.9913    0.9614 H   0  0  0  0  0  0  0  0  0  0  0  0
   14.3265   -5.5278   -1.7507 C   0  0  0  0  0  0  0  0  0  0  0  0
   13.3745   -5.1419   -2.1054 H   0  0  0  0  0  0  0  0  0  0  0  0
   14.6493   -6.8727   -1.9694 C   0  0  0  0  0  0  0  0  0  0  0  0
   13.9537   -7.5237   -2.4905 H   0  0  0  0  0  0  0  0  0  0  0  0
  1  2  1  0
  2  3  2  0
  3  4  1  0
  3  5  1  0
  5  6  1  0
  5  7  2  0
  7  8  1  0
  8  9  1  0
  9 10  2  0
 10 11  1  0
 10 12  1  0
 12 13  1  0
 12 14  2  0
 14 15  1  0
 14 16  1  0
 16 17  1  0
 17 18  1  0
 17 19  1  0
 17 20  1  0
 20 21  1  0
 20 22  1  0
 20 23  1  0
 23 24  1  0
 23 25  1  0
 25 26  1  0
 25 27  1  0
 25 28  1  0
 23 29  1  0
 29 30  1  0
 29 31  1  0
 29 32  1  0
 16 33  2  0
 33 34  1  0
  8 35  1  0
 35 36  2  0
 35 37  1  0
 37 38  1  0
 38 39  1  0
 38 40  1  0
 38 41  1  0
 37 42  1  0
 42 43  1  0
 43 44  1  0
 43 45  1  0
 42 46  2  0
 46 47  1  0
  7 48  1  0
 48 49  1  0
 48 50  2  0
 50 51  1  0
 50  2  1  0
 46  8  1  0
 33  9  1  0
M  CHG  1  46   1
M  END
>  <score>  (181) 
5.67003

$$$$

     RDKit          3D

 51 55  0  0  0  0  0  0  0  0999 V2000
    8.5042  -11.1169   -3.5816 H   0  0  0  0  0  0  0  0  0  0  0  0
    9.2111  -10.3465   -3.2879 C   0  0  0  0  0  0  0  0  0  0  0  0
   10.5188  -10.6337   -3.3162 N   0  0  0  0  0  0  0  0  0  0  0  0
   11.3837   -9.6848   -2.9223 C   0  0  0  0  0  0  0  0  0  0  0  0
   12.7457   -9.9773   -2.9806 C   0  0  0  0  0  0  0  0  0  0  0  0
   13.0701  -10.9527   -3.3294 H   0  0  0  0  0  0  0  0  0  0  0  0
   13.6798   -9.0432   -2.5435 C   0  0  0  0  0  0  0  0  0  0  0  0
   14.7374   -9.2904   -2.5912 H   0  0  0  0  0  0  0  0  0  0  0  0
   13.2826   -7.7830   -2.0685 C   0  0  0  0  0  0  0  0  0  0  0  0
   14.3278   -6.8415   -1.6326 C   0  0  0  0  0  0  0  0  0  0  0  0
   15.5917   -7.3524   -1.3071 C   0  0  0  0  0  0  0  0  0  0  0  0
   15.7666   -8.4179   -1.4079 H   0  0  0  0  0  0  0  0  0  0  0  0
   16.6063   -6.5330   -0.8144 C   0  0  0  0  0  0  0  0  0  0  0  0
   17.5620   -6.9709   -0.5388 H   0  0  0  0  0  0  0  0  0  0  0  0
   16.3704   -5.1641   -0.6575 C   0  0  0  0  0  0  0  0  0  0  0  0
   17.1560   -4.5334   -0.2485 H   0  0  0  0  0  0  0  0  0  0  0  0
   15.1165   -4.6159   -0.9738 C   0  0  0  0  0  0  0  0  0  0  0  0
   14.8288   -3.1471   -0.7035 C   0  0  0  0  0  0  0  0  0  0  0  0
   15.4077   -2.1857   -1.7320 C   0  0  0  0  0  0  0  0  0  0  0  0
   15.9423   -2.6244   -2.9568 C   0  0  0  0  0  0  0  0  0  0  0  0
   15.9816   -3.6871   -3.1795 H   0  0  0  0  0  0  0  0  0  0  0  0
   16.4204   -1.7012   -3.8965 C   0  0  0  0  0  0  0  0  0  0  0  0
   16.8318   -2.0442   -4.8392 H   0  0  0  0  0  0  0  0  0  0  0  0
   16.3652   -0.3306   -3.6271 C   0  0  0  0  0  0  0  0  0  0  0  0
   16.7361    0.3832   -4.3571 H   0  0  0  0  0  0  0  0  0  0  0  0
   15.8236    0.1173   -2.4205 C   0  0  0  0  0  0  0  0  0  0  0  0
   15.7697    1.1804   -2.2071 H   0  0  0  0  0  0  0  0  0  0  0  0
   15.3453   -0.8035   -1.4841 C   0  0  0  0  0  0  0  0  0  0  0  0
   14.9178   -0.4437   -0.5519 H   0  0  0  0  0  0  0  0  0  0  0  0
   13.3186   -2.8996   -0.5323 C   0  0  0  0  0  0  0  0  0  0  0  0
   12.4400   -3.0338   -1.3821 O   0  0  0  0  0  0  0  0  0  0  0  0
   13.0545   -2.5556    0.7749 N   0  0  0  0  0  0  0  0  0  0  0  0
   11.7362   -2.2693    1.3410 C   0  0  0  0  0  0  0  0  0  0  0  0
   11.6685   -1.2173    1.6366 H   0  0  0  0  0  0  0  0  0  0  0  0
   11.5407   -2.8961    2.2184 H   0  0  0  0  0  0  0  0  0  0  0  0
   10.9483   -2.4661    0.6045 H   0  0  0  0  0  0  0  0  0  0  0  0
   14.2602   -2.5380    1.4419 C   0  0  0  0  0  0  0  0  0  0  0  0
   14.4339   -2.3004    2.7723 N   0  0  0  0  0  0  0  0  0  0  0  0
   15.3792   -2.2507    3.1504 H   0  0  0  0  0  0  0  0  0  0  0  0
   13.6301   -2.0709    3.3540 H   0  0  0  0  0  0  0  0  0  0  0  0
   15.2607   -2.8085    0.6693 N   0  0  0  0  0  4  0  0  0  0  0  0
   16.2164   -2.9339    1.0082 H   0  0  0  0  0  0  0  0  0  0  0  0
   14.1077   -5.4642   -1.4806 C   0  0  0  0  0  0  0  0  0  0  0  0
   13.1358   -5.0532   -1.7327 H   0  0  0  0  0  0  0  0  0  0  0  0
   11.9123   -7.4679   -2.0191 C   0  0  0  0  0  0  0  0  0  0  0  0
   11.5935   -6.4916   -1.6638 H   0  0  0  0  0  0  0  0  0  0  0  0
   10.9613   -8.4150   -2.4445 C   0  0  0  0  0  0  0  0  0  0  0  0
    9.6008   -8.1142   -2.4507 C   0  0  0  0  0  0  0  0  0  0  0  0
    9.2280   -7.1352   -2.1472 H   0  0  0  0  0  0  0  0  0  0  0  0
    8.7247   -9.1073   -2.8694 C   0  0  0  0  0  0  0  0  0  0  0  0
    7.6533   -8.9463   -2.8481 H   0  0  0  0  0  0  0  0  0  0  0  0
  1  2  1  0
  2  3  2  0
  3  4  1  0
  4  5  2  0
  5  6  1  0
  5  7  1  0
  7  8  1  0
  7  9  2  0
  9 10  1  0
 10 11  2  0
 11 12  1  0
 11 13  1  0
 13 14  1  0
 13 15  2  0
 15 16  1  0
 15 17  1  0
 17 18  1  0
 18 19  1  0
 19 20  2  0
 20 21  1  0
 20 22  1  0
 22 23  1  0
 22 24  2  0
 24 25  1  0
 24 26  1  0
 26 27  1  0
 26 28  2  0
 28 29  1  0
 18 30  1  0
 30 31  2  0
 30 32  1  0
 32 33  1  0
 33 34  1  0
 33 35  1  0
 33 36  1  0
 32 37  1  0
 37 38  1  0
 38 39  1  0
 38 40  1  0
 37 41  2  0
 41 42  1  0
 17 43  2  0
 43 44  1  0
  9 45  1  0
 45 46  1  0
 45 47  2  0
 47 48  1  0
 48 49  1  0
 48 50  2  0
 50 51  1  0
 50  2  1  0
 47  4  1  0
 43 10  1  0
 41 18  1  0
 28 19  1  0
M  CHG  1  41   1
M  END
>  <score>  (182) 
5.66459

$$$$

     RDKit          3D

 51 53  0  0  0  0  0  0  0  0999 V2000
   16.0921   -8.4232   -1.6317 H   0  0  0  0  0  0  0  0  0  0  0  0
   15.8552   -7.3731   -1.4890 C   0  0  0  0  0  0  0  0  0  0  0  0
   16.7509   -6.5448   -0.8048 C   0  0  0  0  0  0  0  0  0  0  0  0
   17.6817   -6.9428   -0.4087 H   0  0  0  0  0  0  0  0  0  0  0  0
   16.4347   -5.1982   -0.5973 C   0  0  0  0  0  0  0  0  0  0  0  0
   17.1243   -4.5597   -0.0532 H   0  0  0  0  0  0  0  0  0  0  0  0
   15.2168   -4.6638   -1.0514 C   0  0  0  0  0  0  0  0  0  0  0  0
   14.8392   -3.2211   -0.7496 C   0  0  0  0  0  0  0  0  0  0  0  0
   15.3870   -2.1934   -1.7326 C   0  0  0  0  0  0  0  0  0  0  0  0
   15.9326   -2.5800   -2.9651 C   0  0  0  0  0  0  0  0  0  0  0  0
   15.9917   -3.6343   -3.2212 H   0  0  0  0  0  0  0  0  0  0  0  0
   16.4021   -1.6196   -3.8666 C   0  0  0  0  0  0  0  0  0  0  0  0
   16.8236   -1.9302   -4.8181 H   0  0  0  0  0  0  0  0  0  0  0  0
   16.3311   -0.2601   -3.5475 C   0  0  0  0  0  0  0  0  0  0  0  0
   16.7109    0.4660   -4.2638 H   0  0  0  0  0  0  0  0  0  0  0  0
   15.7668    0.1648   -2.3276 C   0  0  0  0  0  0  0  0  0  0  0  0
   15.6621    1.6041   -1.9825 C   0  0  0  0  0  0  0  0  0  0  0  0
   16.0732    2.4299   -2.7961 O   0  0  0  0  0  0  0  0  0  0  0  0
   15.1014    1.9133   -0.7849 O   0  0  0  0  0  0  0  0  0  0  0  0
   15.0080    3.3047   -0.4489 C   0  0  0  0  0  0  0  0  0  0  0  0
   14.3963    3.4321    0.9347 C   0  0  0  0  0  0  0  0  0  0  0  0
   14.2824    4.4928    1.1461 H   0  0  0  0  0  0  0  0  0  0  0  0
   13.4178    2.9502    0.9831 H   0  0  0  0  0  0  0  0  0  0  0  0
   15.0355    3.0100    1.7135 H   0  0  0  0  0  0  0  0  0  0  0  0
   14.1034    4.0595   -1.4239 C   0  0  0  0  0  0  0  0  0  0  0  0
   13.1586    3.5271   -1.5479 H   0  0  0  0  0  0  0  0  0  0  0  0
   13.8903    5.0633   -1.0420 H   0  0  0  0  0  0  0  0  0  0  0  0
   14.5735    4.1596   -2.4023 H   0  0  0  0  0  0  0  0  0  0  0  0
   16.3799    3.9665   -0.3726 C   0  0  0  0  0  0  0  0  0  0  0  0
   16.8308    4.0658   -1.3606 H   0  0  0  0  0  0  0  0  0  0  0  0
   16.2862    4.9660    0.0652 H   0  0  0  0  0  0  0  0  0  0  0  0
   17.0389    3.3651    0.2579 H   0  0  0  0  0  0  0  0  0  0  0  0
   15.2972   -0.8211   -1.4348 C   0  0  0  0  0  0  0  0  0  0  0  0
   14.8560   -0.5228   -0.4849 H   0  0  0  0  0  0  0  0  0  0  0  0
   13.3159   -3.0424   -0.5830 C   0  0  0  0  0  0  0  0  0  0  0  0
   12.4479   -3.1886   -1.4432 O   0  0  0  0  0  0  0  0  0  0  0  0
   13.0483   -2.6810    0.7244 N   0  0  0  0  0  0  0  0  0  0  0  0
   11.7458   -2.3160    1.2847 C   0  0  0  0  0  0  0  0  0  0  0  0
   11.5107   -2.9064    2.1774 H   0  0  0  0  0  0  0  0  0  0  0  0
   11.7368   -1.2583    1.5642 H   0  0  0  0  0  0  0  0  0  0  0  0
   10.9418   -2.4815    0.5612 H   0  0  0  0  0  0  0  0  0  0  0  0
   14.2562   -2.6065    1.3828 C   0  0  0  0  0  0  0  0  0  0  0  0
   14.4347   -2.2638    2.6882 N   0  0  0  0  0  0  0  0  0  0  0  0
   15.3773   -2.2974    3.0813 H   0  0  0  0  0  0  0  0  0  0  0  0
   13.6226   -2.1165    3.2839 H   0  0  0  0  0  0  0  0  0  0  0  0
   15.2545   -2.9028    0.6267 N   0  0  0  0  0  4  0  0  0  0  0  0
   16.2155   -2.9972    0.9619 H   0  0  0  0  0  0  0  0  0  0  0  0
   14.3328   -5.5032   -1.7510 C   0  0  0  0  0  0  0  0  0  0  0  0
   13.3798   -5.1194   -2.1043 H   0  0  0  0  0  0  0  0  0  0  0  0
   14.6509   -6.8485   -1.9718 C   0  0  0  0  0  0  0  0  0  0  0  0
   13.9496   -7.4982   -2.4867 H   0  0  0  0  0  0  0  0  0  0  0  0
  1  2  1  0
  2  3  2  0
  3  4  1  0
  3  5  1  0
  5  6  1  0
  5  7  2  0
  7  8  1  0
  8  9  1  0
  9 10  2  0
 10 11  1  0
 10 12  1  0
 12 13  1  0
 12 14  2  0
 14 15  1  0
 14 16  1  0
 16 17  1  0
 17 18  2  0
 17 19  1  0
 19 20  1  0
 20 21  1  0
 21 22  1  0
 21 23  1  0
 21 24  1  0
 20 25  1  0
 25 26  1  0
 25 27  1  0
 25 28  1  0
 20 29  1  0
 29 30  1  0
 29 31  1  0
 29 32  1  0
 16 33  2  0
 33 34  1  0
  8 35  1  0
 35 36  2  0
 35 37  1  0
 37 38  1  0
 38 39  1  0
 38 40  1  0
 38 41  1  0
 37 42  1  0
 42 43  1  0
 43 44  1  0
 43 45  1  0
 42 46  2  0
 46 47  1  0
  7 48  1  0
 48 49  1  0
 48 50  2  0
 50 51  1  0
 50  2  1  0
 46  8  1  0
 33  9  1  0
M  CHG  1  46   1
M  END
>  <score>  (183) 
5.6627

$$$$

     RDKit          3D

 45 47  0  0  0  0  0  0  0  0999 V2000
   16.1217   -8.4865   -1.6113 H   0  0  0  0  0  0  0  0  0  0  0  0
   15.8539   -7.4412   -1.4720 C   0  0  0  0  0  0  0  0  0  0  0  0
   16.7293   -6.5828   -0.8025 C   0  0  0  0  0  0  0  0  0  0  0  0
   17.6730   -6.9563   -0.4171 H   0  0  0  0  0  0  0  0  0  0  0  0
   16.3904   -5.2391   -0.6099 C   0  0  0  0  0  0  0  0  0  0  0  0
   17.0679   -4.5890   -0.0650 H   0  0  0  0  0  0  0  0  0  0  0  0
   15.1721   -4.7169   -1.0746 C   0  0  0  0  0  0  0  0  0  0  0  0
   14.8141   -3.2528   -0.7846 C   0  0  0  0  0  0  0  0  0  0  0  0
   15.3910   -2.2468   -1.7788 C   0  0  0  0  0  0  0  0  0  0  0  0
   15.9467   -2.6418   -3.0071 C   0  0  0  0  0  0  0  0  0  0  0  0
   16.0036   -3.6951   -3.2590 H   0  0  0  0  0  0  0  0  0  0  0  0
   16.4244   -1.6907   -3.9193 C   0  0  0  0  0  0  0  0  0  0  0  0
   16.8545   -2.0031   -4.8647 H   0  0  0  0  0  0  0  0  0  0  0  0
   16.3417   -0.3260   -3.6256 C   0  0  0  0  0  0  0  0  0  0  0  0
   16.6943    0.4106   -4.3425 H   0  0  0  0  0  0  0  0  0  0  0  0
   15.7827    0.0913   -2.4155 C   0  0  0  0  0  0  0  0  0  0  0  0
   15.6382    1.5592   -2.1092 C   0  0  0  0  0  0  0  0  0  0  0  0
   16.3440    2.1553   -2.6871 H   0  0  0  0  0  0  0  0  0  0  0  0
   15.8441    1.7563   -1.0577 H   0  0  0  0  0  0  0  0  0  0  0  0
   14.2188    2.0200   -2.4113 C   0  0  0  0  0  0  0  0  0  0  0  0
   14.0046    2.5555   -3.4924 O   0  0  0  0  0  0  0  0  0  0  0  0
   13.2960    1.8184   -1.4345 O   0  0  0  0  0  0  0  0  0  0  0  0
   11.9367    2.1945   -1.7355 C   0  0  0  0  0  0  0  0  0  0  0  0
   11.5376    1.6528   -2.5978 H   0  0  0  0  0  0  0  0  0  0  0  0
   11.3045    1.9545   -0.8795 H   0  0  0  0  0  0  0  0  0  0  0  0
   11.8360    3.2661   -1.9276 H   0  0  0  0  0  0  0  0  0  0  0  0
   15.3184   -0.8664   -1.5058 C   0  0  0  0  0  0  0  0  0  0  0  0
   14.8864   -0.5248   -0.5707 H   0  0  0  0  0  0  0  0  0  0  0  0
   13.2992   -3.0273   -0.6042 C   0  0  0  0  0  0  0  0  0  0  0  0
   12.4301   -3.0871   -1.4714 O   0  0  0  0  0  0  0  0  0  0  0  0
   13.0242   -2.6748    0.7030 N   0  0  0  0  0  0  0  0  0  0  0  0
   11.7184   -2.3128    1.2633 C   0  0  0  0  0  0  0  0  0  0  0  0
   10.9119   -2.4799    0.5416 H   0  0  0  0  0  0  0  0  0  0  0  0
   11.6933   -1.2582    1.5543 H   0  0  0  0  0  0  0  0  0  0  0  0
   11.5050   -2.9143    2.1510 H   0  0  0  0  0  0  0  0  0  0  0  0
   14.2250   -2.6291    1.3648 C   0  0  0  0  0  0  0  0  0  0  0  0
   14.3958   -2.3321    2.6859 N   0  0  0  0  0  0  0  0  0  0  0  0
   13.5812   -2.1261    3.2626 H   0  0  0  0  0  0  0  0  0  0  0  0
   15.3315   -2.3546    3.0911 H   0  0  0  0  0  0  0  0  0  0  0  0
   15.2215   -2.9054    0.5929 N   0  0  0  0  0  4  0  0  0  0  0  0
   16.1901   -2.9108    0.9066 H   0  0  0  0  0  0  0  0  0  0  0  0
   14.3031   -5.5894   -1.7683 C   0  0  0  0  0  0  0  0  0  0  0  0
   13.3533   -5.2348   -2.1582 H   0  0  0  0  0  0  0  0  0  0  0  0
   14.6430   -6.9405   -1.9615 C   0  0  0  0  0  0  0  0  0  0  0  0
   13.9723   -7.6137   -2.4881 H   0  0  0  0  0  0  0  0  0  0  0  0
  1  2  1  0
  2  3  2  0
  3  4  1  0
  3  5  1  0
  5  6  1  0
  5  7  2  0
  7  8  1  0
  8  9  1  0
  9 10  2  0
 10 11  1  0
 10 12  1  0
 12 13  1  0
 12 14  2  0
 14 15  1  0
 14 16  1  0
 16 17  1  0
 17 18  1  0
 17 19  1  0
 17 20  1  0
 20 21  2  0
 20 22  1  0
 22 23  1  0
 23 24  1  0
 23 25  1  0
 23 26  1  0
 16 27  2  0
 27 28  1  0
  8 29  1  0
 29 30  2  0
 29 31  1  0
 31 32  1  0
 32 33  1  0
 32 34  1  0
 32 35  1  0
 31 36  1  0
 36 37  1  0
 37 38  1  0
 37 39  1  0
 36 40  2  0
 40 41  1  0
  7 42  1  0
 42 43  1  0
 42 44  2  0
 44 45  1  0
 44  2  1  0
 40  8  1  0
 27  9  1  0
M  CHG  1  40   1
M  END
>  <score>  (184) 
5.65808

$$$$

     RDKit          3D

 56 59  0  0  0  0  0  0  0  0999 V2000
   16.0733   -8.4921   -1.7387 H   0  0  0  0  0  0  0  0  0  0  0  0
   15.8124   -7.4521   -1.5753 C   0  0  0  0  0  0  0  0  0  0  0  0
   16.7083   -6.6051   -0.9179 C   0  0  0  0  0  0  0  0  0  0  0  0
   17.6701   -6.9741   -0.5736 H   0  0  0  0  0  0  0  0  0  0  0  0
   16.3744   -5.2640   -0.7170 C   0  0  0  0  0  0  0  0  0  0  0  0
   17.0657   -4.6021   -0.2048 H   0  0  0  0  0  0  0  0  0  0  0  0
   15.1449   -4.7454   -1.1451 C   0  0  0  0  0  0  0  0  0  0  0  0
   14.8046   -3.2858   -0.8375 C   0  0  0  0  0  0  0  0  0  0  0  0
   15.3455   -2.3020   -1.8623 C   0  0  0  0  0  0  0  0  0  0  0  0
   15.9130   -2.7458   -3.0693 C   0  0  0  0  0  0  0  0  0  0  0  0
   15.9503   -3.8045   -3.3181 H   0  0  0  0  0  0  0  0  0  0  0  0
   16.4367   -1.8238   -3.9756 C   0  0  0  0  0  0  0  0  0  0  0  0
   16.8902   -2.1480   -4.9038 H   0  0  0  0  0  0  0  0  0  0  0  0
   16.3793   -0.4566   -3.7055 C   0  0  0  0  0  0  0  0  0  0  0  0
   16.8087    0.2449   -4.4141 H   0  0  0  0  0  0  0  0  0  0  0  0
   15.7841    0.0159   -2.5289 C   0  0  0  0  0  0  0  0  0  0  0  0
   15.7261    1.5072   -2.2656 C   0  0  0  0  0  0  0  0  0  0  0  0
   16.0707    2.0314   -3.1622 H   0  0  0  0  0  0  0  0  0  0  0  0
   14.3051    1.9911   -1.9527 C   0  0  0  0  0  0  0  0  0  0  0  0
   13.6280    1.7342   -2.7735 H   0  0  0  0  0  0  0  0  0  0  0  0
   13.9387    1.5124   -1.0388 H   0  0  0  0  0  0  0  0  0  0  0  0
   14.3220    3.5068   -1.7569 C   0  0  0  0  0  0  0  0  0  0  0  0
   13.3161    3.8567   -1.5104 H   0  0  0  0  0  0  0  0  0  0  0  0
   14.6096    3.9969   -2.6939 H   0  0  0  0  0  0  0  0  0  0  0  0
   15.2890    3.8541   -0.7138 N   0  0  0  0  0  0  0  0  0  0  0  0
   14.9044    4.3941    0.5041 C   0  0  0  0  0  0  0  0  0  0  0  0
   15.7410    4.7676    1.3143 O   0  0  0  0  0  0  0  0  0  0  0  0
   13.4550    4.3762    0.9203 C   0  0  0  0  0  0  0  0  0  0  0  0
   13.2067    3.4058    1.3547 H   0  0  0  0  0  0  0  0  0  0  0  0
   12.8197    4.5298    0.0479 H   0  0  0  0  0  0  0  0  0  0  0  0
   13.2916    5.1651    1.6593 H   0  0  0  0  0  0  0  0  0  0  0  0
   16.6677    3.4133   -0.8877 C   0  0  0  0  0  0  0  0  0  0  0  0
   17.2657    3.6419    0.0021 H   0  0  0  0  0  0  0  0  0  0  0  0
   17.1361    3.9275   -1.7333 H   0  0  0  0  0  0  0  0  0  0  0  0
   16.6563    1.9028   -1.1156 C   0  0  0  0  0  0  0  0  0  0  0  0
   17.6589    1.5940   -1.3798 H   0  0  0  0  0  0  0  0  0  0  0  0
   16.3550    1.3949   -0.1913 H   0  0  0  0  0  0  0  0  0  0  0  0
   15.2670   -0.9159   -1.6184 C   0  0  0  0  0  0  0  0  0  0  0  0
   14.7953   -0.5584   -0.7077 H   0  0  0  0  0  0  0  0  0  0  0  0
   13.2968   -3.0798   -0.6044 C   0  0  0  0  0  0  0  0  0  0  0  0
   12.3930   -3.2947   -1.4082 O   0  0  0  0  0  0  0  0  0  0  0  0
   13.0922   -2.6166    0.6830 N   0  0  0  0  0  0  0  0  0  0  0  0
   11.8171   -2.2111    1.2799 C   0  0  0  0  0  0  0  0  0  0  0  0
   11.5912   -1.1563    1.0808 H   0  0  0  0  0  0  0  0  0  0  0  0
   10.9994   -2.8187    0.8761 H   0  0  0  0  0  0  0  0  0  0  0  0
   11.8499   -2.3446    2.3683 H   0  0  0  0  0  0  0  0  0  0  0  0
   14.3249   -2.5353    1.2900 C   0  0  0  0  0  0  0  0  0  0  0  0
   14.5571   -2.1190    2.5715 N   0  0  0  0  0  0  0  0  0  0  0  0
   13.7665   -2.1092    3.2128 H   0  0  0  0  0  0  0  0  0  0  0  0
   15.4822   -2.3046    2.9571 H   0  0  0  0  0  0  0  0  0  0  0  0
   15.2852   -2.9158    0.5141 N   0  0  0  0  0  4  0  0  0  0  0  0
   16.2653   -2.7674    0.7540 H   0  0  0  0  0  0  0  0  0  0  0  0
   14.2510   -5.6089   -1.8164 C   0  0  0  0  0  0  0  0  0  0  0  0
   13.2939   -5.2431   -2.1786 H   0  0  0  0  0  0  0  0  0  0  0  0
   14.5845   -6.9568   -2.0265 C   0  0  0  0  0  0  0  0  0  0  0  0
   13.9021   -7.6173   -2.5571 H   0  0  0  0  0  0  0  0  0  0  0  0
  1  2  1  0
  2  3  2  0
  3  4  1  0
  3  5  1  0
  5  6  1  0
  5  7  2  0
  7  8  1  0
  8  9  1  0
  9 10  2  0
 10 11  1  0
 10 12  1  0
 12 13  1  0
 12 14  2  0
 14 15  1  0
 14 16  1  0
 16 17  1  0
 17 18  1  0
 17 19  1  0
 19 20  1  0
 19 21  1  0
 19 22  1  0
 22 23  1  0
 22 24  1  0
 22 25  1  0
 25 26  1  0
 26 27  2  0
 26 28  1  0
 28 29  1  0
 28 30  1  0
 28 31  1  0
 25 32  1  0
 32 33  1  0
 32 34  1  0
 32 35  1  0
 35 36  1  0
 35 37  1  0
 16 38  2  0
 38 39  1  0
  8 40  1  0
 40 41  2  0
 40 42  1  0
 42 43  1  0
 43 44  1  0
 43 45  1  0
 43 46  1  0
 42 47  1  0
 47 48  1  0
 48 49  1  0
 48 50  1  0
 47 51  2  0
 51 52  1  0
  7 53  1  0
 53 54  1  0
 53 55  2  0
 55 56  1  0
 55  2  1  0
 51  8  1  0
 38  9  1  0
 35 17  1  0
M  CHG  1  51   1
M  END
>  <score>  (185) 
5.65572

$$$$

     RDKit          3D

 49 52  0  0  0  0  0  0  0  0999 V2000
   16.1088   -8.4455   -1.6809 H   0  0  0  0  0  0  0  0  0  0  0  0
   15.8661   -7.4021   -1.5085 C   0  0  0  0  0  0  0  0  0  0  0  0
   16.7700   -6.5824   -0.8268 C   0  0  0  0  0  0  0  0  0  0  0  0
   17.7089   -6.9836   -0.4579 H   0  0  0  0  0  0  0  0  0  0  0  0
   16.4629   -5.2379   -0.6065 C   0  0  0  0  0  0  0  0  0  0  0  0
   17.1550   -4.6048   -0.0577 H   0  0  0  0  0  0  0  0  0  0  0  0
   15.2473   -4.6966   -1.0528 C   0  0  0  0  0  0  0  0  0  0  0  0
   14.8906   -3.2504   -0.7402 C   0  0  0  0  0  0  0  0  0  0  0  0
   15.3984   -2.2527   -1.7740 C   0  0  0  0  0  0  0  0  0  0  0  0
   15.9153   -2.6521   -3.0181 C   0  0  0  0  0  0  0  0  0  0  0  0
   15.9742   -3.7081   -3.2619 H   0  0  0  0  0  0  0  0  0  0  0  0
   16.3740   -1.7029   -3.9413 C   0  0  0  0  0  0  0  0  0  0  0  0
   16.8046   -2.0175   -4.8873 H   0  0  0  0  0  0  0  0  0  0  0  0
   16.2953   -0.3375   -3.6390 C   0  0  0  0  0  0  0  0  0  0  0  0
   16.6556    0.4025   -4.3495 H   0  0  0  0  0  0  0  0  0  0  0  0
   15.7734    0.0888   -2.4073 C   0  0  0  0  0  0  0  0  0  0  0  0
   15.6926    1.5204   -2.0660 C   0  0  0  0  0  0  0  0  0  0  0  0
   15.3982    2.4617   -3.0625 C   0  0  0  0  0  0  0  0  0  0  0  0
   15.2284    2.1191   -4.0778 H   0  0  0  0  0  0  0  0  0  0  0  0
   15.2926    3.8217   -2.7509 C   0  0  0  0  0  0  0  0  0  0  0  0
   15.0298    4.5398   -3.5212 H   0  0  0  0  0  0  0  0  0  0  0  0
   15.5176    4.2581   -1.4438 C   0  0  0  0  0  0  0  0  0  0  0  0
   15.4448    5.3151   -1.2079 H   0  0  0  0  0  0  0  0  0  0  0  0
   15.8312    3.3392   -0.4355 C   0  0  0  0  0  0  0  0  0  0  0  0
   16.0853    3.8145    0.9683 C   0  0  0  0  0  0  0  0  0  0  0  0
   16.8978    3.2395    1.4248 H   0  0  0  0  0  0  0  0  0  0  0  0
   15.1844    3.6959    1.5779 H   0  0  0  0  0  0  0  0  0  0  0  0
   16.3653    4.8720    0.9670 H   0  0  0  0  0  0  0  0  0  0  0  0
   15.8967    1.9741   -0.7498 C   0  0  0  0  0  0  0  0  0  0  0  0
   16.1272    1.2639    0.0387 H   0  0  0  0  0  0  0  0  0  0  0  0
   15.3295   -0.8773   -1.4936 C   0  0  0  0  0  0  0  0  0  0  0  0
   14.9192   -0.5483   -0.5439 H   0  0  0  0  0  0  0  0  0  0  0  0
   13.3726   -3.0663   -0.5148 C   0  0  0  0  0  0  0  0  0  0  0  0
   12.4591   -3.2635   -1.3146 O   0  0  0  0  0  0  0  0  0  0  0  0
   13.1612   -2.6653    0.7879 N   0  0  0  0  0  0  0  0  0  0  0  0
   11.8905   -2.2749    1.3855 C   0  0  0  0  0  0  0  0  0  0  0  0
   11.8846   -2.5247    2.4542 H   0  0  0  0  0  0  0  0  0  0  0  0
   11.7382   -1.1931    1.2816 H   0  0  0  0  0  0  0  0  0  0  0  0
   11.0666   -2.8087    0.8946 H   0  0  0  0  0  0  0  0  0  0  0  0
   14.3906   -2.5566    1.3905 C   0  0  0  0  0  0  0  0  0  0  0  0
   14.5610   -2.1197    2.6716 N   0  0  0  0  0  0  0  0  0  0  0  0
   15.5040   -2.1724    3.0531 H   0  0  0  0  0  0  0  0  0  0  0  0
   13.7744   -2.2408    3.3122 H   0  0  0  0  0  0  0  0  0  0  0  0
   15.3667   -2.8890    0.6138 N   0  0  0  0  0  4  0  0  0  0  0  0
   16.3556   -2.7984    0.8652 H   0  0  0  0  0  0  0  0  0  0  0  0
   14.3537   -5.5249   -1.7574 C   0  0  0  0  0  0  0  0  0  0  0  0
   13.4049   -5.1330   -2.1150 H   0  0  0  0  0  0  0  0  0  0  0  0
   14.6615   -6.8714   -1.9797 C   0  0  0  0  0  0  0  0  0  0  0  0
   13.9665   -7.5110   -2.5139 H   0  0  0  0  0  0  0  0  0  0  0  0
  1  2  1  0
  2  3  2  0
  3  4  1  0
  3  5  1  0
  5  6  1  0
  5  7  2  0
  7  8  1  0
  8  9  1  0
  9 10  2  0
 10 11  1  0
 10 12  1  0
 12 13  1  0
 12 14  2  0
 14 15  1  0
 14 16  1  0
 16 17  1  0
 17 18  2  0
 18 19  1  0
 18 20  1  0
 20 21  1  0
 20 22  2  0
 22 23  1  0
 22 24  1  0
 24 25  1  0
 25 26  1  0
 25 27  1  0
 25 28  1  0
 24 29  2  0
 29 30  1  0
 16 31  2  0
 31 32  1  0
  8 33  1  0
 33 34  2  0
 33 35  1  0
 35 36  1  0
 36 37  1  0
 36 38  1  0
 36 39  1  0
 35 40  1  0
 40 41  1  0
 41 42  1  0
 41 43  1  0
 40 44  2  0
 44 45  1  0
  7 46  1  0
 46 47  1  0
 46 48  2  0
 48 49  1  0
 48  2  1  0
 44  8  1  0
 31  9  1  0
 29 17  1  0
M  CHG  1  44   1
M  END
>  <score>  (186) 
5.65537

$$$$

     RDKit          3D

 51 53  0  0  0  0  0  0  0  0999 V2000
   16.1809   -8.2870   -1.7257 H   0  0  0  0  0  0  0  0  0  0  0  0
   15.9420   -7.2450   -1.5344 C   0  0  0  0  0  0  0  0  0  0  0  0
   16.8347   -6.4373   -0.8201 C   0  0  0  0  0  0  0  0  0  0  0  0
   17.7675   -6.8500   -0.4465 H   0  0  0  0  0  0  0  0  0  0  0  0
   16.5218   -5.0956   -0.5722 C   0  0  0  0  0  0  0  0  0  0  0  0
   17.2128   -4.4801   -0.0031 H   0  0  0  0  0  0  0  0  0  0  0  0
   15.3113   -4.5440   -1.0252 C   0  0  0  0  0  0  0  0  0  0  0  0
   14.9251   -3.1053   -0.7128 C   0  0  0  0  0  0  0  0  0  0  0  0
   15.3748   -2.0969   -1.7605 C   0  0  0  0  0  0  0  0  0  0  0  0
   16.1317   -2.4713   -2.8833 C   0  0  0  0  0  0  0  0  0  0  0  0
   16.4393   -3.5061   -3.0019 H   0  0  0  0  0  0  0  0  0  0  0  0
   16.4639   -1.5286   -3.8637 C   0  0  0  0  0  0  0  0  0  0  0  0
   17.0529   -1.8255   -4.7257 H   0  0  0  0  0  0  0  0  0  0  0  0
   16.0154   -0.2091   -3.7531 C   0  0  0  0  0  0  0  0  0  0  0  0
   16.2549    0.5139   -4.5270 H   0  0  0  0  0  0  0  0  0  0  0  0
   15.2504    0.1823   -2.6479 C   0  0  0  0  0  0  0  0  0  0  0  0
   14.7383    1.5965   -2.5230 C   0  0  0  0  0  0  0  0  0  0  0  0
   14.1006    1.8317   -3.3801 H   0  0  0  0  0  0  0  0  0  0  0  0
   14.1168    1.6883   -1.6288 H   0  0  0  0  0  0  0  0  0  0  0  0
   15.8850    2.6117   -2.4365 C   0  0  0  0  0  0  0  0  0  0  0  0
   15.4671    3.6042   -2.2547 H   0  0  0  0  0  0  0  0  0  0  0  0
   16.4068    2.6456   -3.3999 H   0  0  0  0  0  0  0  0  0  0  0  0
   16.8681    2.2592   -1.3045 C   0  0  0  0  0  0  0  0  0  0  0  0
   17.2626    1.2548   -1.4965 H   0  0  0  0  0  0  0  0  0  0  0  0
   17.7083    2.9651   -1.3121 H   0  0  0  0  0  0  0  0  0  0  0  0
   16.2117    2.2624    0.0870 C   0  0  0  0  0  0  0  0  0  0  0  0
   15.1796    1.9080    0.0184 H   0  0  0  0  0  0  0  0  0  0  0  0
   16.7522    1.5667    0.7349 H   0  0  0  0  0  0  0  0  0  0  0  0
   16.2186    3.6442    0.7398 C   0  0  0  0  0  0  0  0  0  0  0  0
   17.2433    3.9819    0.9191 H   0  0  0  0  0  0  0  0  0  0  0  0
   15.7166    4.3779    0.1038 H   0  0  0  0  0  0  0  0  0  0  0  0
   15.7006    3.6006    1.7020 H   0  0  0  0  0  0  0  0  0  0  0  0
   14.9577   -0.7590   -1.6535 C   0  0  0  0  0  0  0  0  0  0  0  0
   14.3812   -0.4378   -0.7900 H   0  0  0  0  0  0  0  0  0  0  0  0
   13.4060   -2.9865   -0.4564 C   0  0  0  0  0  0  0  0  0  0  0  0
   12.4986   -3.1353   -1.2678 O   0  0  0  0  0  0  0  0  0  0  0  0
   13.1916   -2.6777    0.8739 N   0  0  0  0  0  0  0  0  0  0  0  0
   11.9256   -2.2982    1.4921 C   0  0  0  0  0  0  0  0  0  0  0  0
   11.7745   -1.2169    1.4171 H   0  0  0  0  0  0  0  0  0  0  0  0
   11.9188   -2.5638    2.5533 H   0  0  0  0  0  0  0  0  0  0  0  0
   11.0819   -2.8086    1.0156 H   0  0  0  0  0  0  0  0  0  0  0  0
   14.4282   -2.5149    1.4396 C   0  0  0  0  0  0  0  0  0  0  0  0
   14.6386   -2.2065    2.7362 N   0  0  0  0  0  0  0  0  0  0  0  0
   15.5807   -2.3806    3.0674 H   0  0  0  0  0  0  0  0  0  0  0  0
   13.8643   -2.3482    3.3739 H   0  0  0  0  0  0  0  0  0  0  0  0
   15.4011   -2.7276    0.6255 N   0  0  0  0  0  4  0  0  0  0  0  0
   16.3856   -2.7343    0.9008 H   0  0  0  0  0  0  0  0  0  0  0  0
   14.4310   -5.3632   -1.7507 C   0  0  0  0  0  0  0  0  0  0  0  0
   13.4861   -4.9601   -2.1040 H   0  0  0  0  0  0  0  0  0  0  0  0
   14.7401   -6.7037   -2.0012 C   0  0  0  0  0  0  0  0  0  0  0  0
   14.0402   -7.3258   -2.5520 H   0  0  0  0  0  0  0  0  0  0  0  0
  1  2  1  0
  2  3  2  0
  3  4  1  0
  3  5  1  0
  5  6  1  0
  5  7  2  0
  7  8  1  0
  8  9  1  0
  9 10  2  0
 10 11  1  0
 10 12  1  0
 12 13  1  0
 12 14  2  0
 14 15  1  0
 14 16  1  0
 16 17  1  0
 17 18  1  0
 17 19  1  0
 17 20  1  0
 20 21  1  0
 20 22  1  0
 20 23  1  0
 23 24  1  0
 23 25  1  0
 23 26  1  0
 26 27  1  0
 26 28  1  0
 26 29  1  0
 29 30  1  0
 29 31  1  0
 29 32  1  0
 16 33  2  0
 33 34  1  0
  8 35  1  0
 35 36  2  0
 35 37  1  0
 37 38  1  0
 38 39  1  0
 38 40  1  0
 38 41  1  0
 37 42  1  0
 42 43  1  0
 43 44  1  0
 43 45  1  0
 42 46  2  0
 46 47  1  0
  7 48  1  0
 48 49  1  0
 48 50  2  0
 50 51  1  0
 50  2  1  0
 46  8  1  0
 33  9  1  0
M  CHG  1  46   1
M  END
>  <score>  (187) 
5.65324

$$$$

     RDKit          3D

 39 41  0  0  0  0  0  0  0  0999 V2000
   16.1312   -8.4934   -1.6102 H   0  0  0  0  0  0  0  0  0  0  0  0
   15.8560   -7.4522   -1.4662 C   0  0  0  0  0  0  0  0  0  0  0  0
   16.7246   -6.5924   -0.7929 C   0  0  0  0  0  0  0  0  0  0  0  0
   17.6797   -6.9540   -0.4231 H   0  0  0  0  0  0  0  0  0  0  0  0
   16.3759   -5.2509   -0.6029 C   0  0  0  0  0  0  0  0  0  0  0  0
   17.0737   -4.6071   -0.0783 H   0  0  0  0  0  0  0  0  0  0  0  0
   15.1536   -4.7273   -1.0687 C   0  0  0  0  0  0  0  0  0  0  0  0
   14.7983   -3.2510   -0.7874 C   0  0  0  0  0  0  0  0  0  0  0  0
   15.3877   -2.2473   -1.7883 C   0  0  0  0  0  0  0  0  0  0  0  0
   15.9476   -2.6451   -3.0175 C   0  0  0  0  0  0  0  0  0  0  0  0
   16.0120   -3.6973   -3.2820 H   0  0  0  0  0  0  0  0  0  0  0  0
   16.4266   -1.6889   -3.9232 C   0  0  0  0  0  0  0  0  0  0  0  0
   16.8618   -2.0077   -4.8644 H   0  0  0  0  0  0  0  0  0  0  0  0
   16.3433   -0.3231   -3.6283 C   0  0  0  0  0  0  0  0  0  0  0  0
   16.7044    0.3970   -4.3577 H   0  0  0  0  0  0  0  0  0  0  0  0
   15.7944    0.1083   -2.4094 C   0  0  0  0  0  0  0  0  0  0  0  0
   15.6983    1.5842   -2.0729 C   0  0  0  0  0  0  0  0  0  0  0  0
   16.1208    2.1884   -2.8811 H   0  0  0  0  0  0  0  0  0  0  0  0
   16.3867    1.8452   -0.9304 F   0  0  0  0  0  0  0  0  0  0  0  0
   14.3949    1.9341   -1.9056 F   0  0  0  0  0  0  0  0  0  0  0  0
   15.3241   -0.8650   -1.5059 C   0  0  0  0  0  0  0  0  0  0  0  0
   14.8983   -0.5319   -0.5622 H   0  0  0  0  0  0  0  0  0  0  0  0
   13.2824   -3.0137   -0.6184 C   0  0  0  0  0  0  0  0  0  0  0  0
   12.4150   -3.0719   -1.4873 O   0  0  0  0  0  0  0  0  0  0  0  0
   13.0173   -2.6630    0.6973 N   0  0  0  0  0  0  0  0  0  0  0  0
   11.7156   -2.3116    1.2625 C   0  0  0  0  0  0  0  0  0  0  0  0
   11.4994   -2.9242    2.1452 H   0  0  0  0  0  0  0  0  0  0  0  0
   11.6927   -1.2568    1.5591 H   0  0  0  0  0  0  0  0  0  0  0  0
   10.9181   -2.4779    0.5339 H   0  0  0  0  0  0  0  0  0  0  0  0
   14.2196   -2.6316    1.3682 C   0  0  0  0  0  0  0  0  0  0  0  0
   14.3864   -2.3467    2.6929 N   0  0  0  0  0  0  0  0  0  0  0  0
   15.3207   -2.3619    3.1018 H   0  0  0  0  0  0  0  0  0  0  0  0
   13.5772   -2.1261    3.2743 H   0  0  0  0  0  0  0  0  0  0  0  0
   15.2191   -2.9089    0.5895 N   0  0  0  0  0  4  0  0  0  0  0  0
   16.1958   -2.8806    0.8898 H   0  0  0  0  0  0  0  0  0  0  0  0
   14.2952   -5.6082   -1.7704 C   0  0  0  0  0  0  0  0  0  0  0  0
   13.3514   -5.2623   -2.1828 H   0  0  0  0  0  0  0  0  0  0  0  0
   14.6427   -6.9595   -1.9584 C   0  0  0  0  0  0  0  0  0  0  0  0
   13.9731   -7.6307   -2.4899 H   0  0  0  0  0  0  0  0  0  0  0  0
  1  2  1  0
  2  3  2  0
  3  4  1  0
  3  5  1  0
  5  6  1  0
  5  7  2  0
  7  8  1  0
  8  9  1  0
  9 10  2  0
 10 11  1  0
 10 12  1  0
 12 13  1  0
 12 14  2  0
 14 15  1  0
 14 16  1  0
 16 17  1  0
 17 18  1  0
 17 19  1  0
 17 20  1  0
 16 21  2  0
 21 22  1  0
  8 23  1  0
 23 24  2  0
 23 25  1  0
 25 26  1  0
 26 27  1  0
 26 28  1  0
 26 29  1  0
 25 30  1  0
 30 31  1  0
 31 32  1  0
 31 33  1  0
 30 34  2  0
 34 35  1  0
  7 36  1  0
 36 37  1  0
 36 38  2  0
 38 39  1  0
 38  2  1  0
 34  8  1  0
 21  9  1  0
M  CHG  1  34   1
M  END
>  <score>  (188) 
5.65052

$$$$

     RDKit          3D

 46 49  0  0  0  0  0  0  0  0999 V2000
   16.1064   -8.4406   -1.6814 H   0  0  0  0  0  0  0  0  0  0  0  0
   15.8701   -7.3947   -1.5122 C   0  0  0  0  0  0  0  0  0  0  0  0
   16.7738   -6.5759   -0.8298 C   0  0  0  0  0  0  0  0  0  0  0  0
   17.7111   -6.9815   -0.4621 H   0  0  0  0  0  0  0  0  0  0  0  0
   16.4669   -5.2302   -0.6077 C   0  0  0  0  0  0  0  0  0  0  0  0
   17.1634   -4.6000   -0.0624 H   0  0  0  0  0  0  0  0  0  0  0  0
   15.2529   -4.6864   -1.0551 C   0  0  0  0  0  0  0  0  0  0  0  0
   14.8977   -3.2370   -0.7461 C   0  0  0  0  0  0  0  0  0  0  0  0
   15.4006   -2.2386   -1.7828 C   0  0  0  0  0  0  0  0  0  0  0  0
   15.9163   -2.6271   -3.0304 C   0  0  0  0  0  0  0  0  0  0  0  0
   15.9692   -3.6833   -3.2784 H   0  0  0  0  0  0  0  0  0  0  0  0
   16.3638   -1.6652   -3.9472 C   0  0  0  0  0  0  0  0  0  0  0  0
   16.7910   -1.9825   -4.8939 H   0  0  0  0  0  0  0  0  0  0  0  0
   16.2756   -0.3010   -3.6364 C   0  0  0  0  0  0  0  0  0  0  0  0
   16.6371    0.4403   -4.3434 H   0  0  0  0  0  0  0  0  0  0  0  0
   15.7638    0.1104   -2.3958 C   0  0  0  0  0  0  0  0  0  0  0  0
   15.6753    1.5334   -2.0249 C   0  0  0  0  0  0  0  0  0  0  0  0
   16.0233    1.9609   -0.7300 C   0  0  0  0  0  0  0  0  0  0  0  0
   16.3931    1.2424   -0.0046 H   0  0  0  0  0  0  0  0  0  0  0  0
   15.9243    3.3113   -0.3678 C   0  0  0  0  0  0  0  0  0  0  0  0
   16.2127    3.6342    0.6305 H   0  0  0  0  0  0  0  0  0  0  0  0
   15.4247    4.2404   -1.2855 C   0  0  0  0  0  0  0  0  0  0  0  0
   15.3087    5.2828   -1.0026 H   0  0  0  0  0  0  0  0  0  0  0  0
   15.0410    3.8266   -2.5646 C   0  0  0  0  0  0  0  0  0  0  0  0
   14.2430    5.0816   -3.7636 Br  0  0  0  0  0  0  0  0  0  0  0  0
   15.2001    2.4855   -2.9389 C   0  0  0  0  0  0  0  0  0  0  0  0
   14.9041    2.1689   -3.9329 H   0  0  0  0  0  0  0  0  0  0  0  0
   15.3300   -0.8663   -1.4900 C   0  0  0  0  0  0  0  0  0  0  0  0
   14.9219   -0.5439   -0.5360 H   0  0  0  0  0  0  0  0  0  0  0  0
   13.3828   -3.0617   -0.5094 C   0  0  0  0  0  0  0  0  0  0  0  0
   12.4643   -3.2660   -1.3043 O   0  0  0  0  0  0  0  0  0  0  0  0
   13.1803   -2.6377    0.7853 N   0  0  0  0  0  0  0  0  0  0  0  0
   11.9058   -2.2707    1.3915 C   0  0  0  0  0  0  0  0  0  0  0  0
   11.9024   -2.5246    2.4587 H   0  0  0  0  0  0  0  0  0  0  0  0
   11.7401   -1.1910    1.2928 H   0  0  0  0  0  0  0  0  0  0  0  0
   11.0850   -2.8102    0.9001 H   0  0  0  0  0  0  0  0  0  0  0  0
   14.4042   -2.5348    1.3958 C   0  0  0  0  0  0  0  0  0  0  0  0
   14.5572   -2.1321    2.6836 N   0  0  0  0  0  0  0  0  0  0  0  0
   15.4854   -2.1730    3.0928 H   0  0  0  0  0  0  0  0  0  0  0  0
   13.7501   -2.2304    3.2915 H   0  0  0  0  0  0  0  0  0  0  0  0
   15.3765   -2.8557    0.6045 N   0  0  0  0  0  4  0  0  0  0  0  0
   16.3641   -2.7813    0.8587 H   0  0  0  0  0  0  0  0  0  0  0  0
   14.3595   -5.5156   -1.7595 C   0  0  0  0  0  0  0  0  0  0  0  0
   13.4130   -5.1208   -2.1198 H   0  0  0  0  0  0  0  0  0  0  0  0
   14.6656   -6.8634   -1.9819 C   0  0  0  0  0  0  0  0  0  0  0  0
   13.9679   -7.5010   -2.5152 H   0  0  0  0  0  0  0  0  0  0  0  0
  1  2  1  0
  2  3  2  0
  3  4  1  0
  3  5  1  0
  5  6  1  0
  5  7  2  0
  7  8  1  0
  8  9  1  0
  9 10  2  0
 10 11  1  0
 10 12  1  0
 12 13  1  0
 12 14  2  0
 14 15  1  0
 14 16  1  0
 16 17  1  0
 17 18  2  0
 18 19  1  0
 18 20  1  0
 20 21  1  0
 20 22  2  0
 22 23  1  0
 22 24  1  0
 24 25  1  0
 24 26  2  0
 26 27  1  0
 16 28  2  0
 28 29  1  0
  8 30  1  0
 30 31  2  0
 30 32  1  0
 32 33  1  0
 33 34  1  0
 33 35  1  0
 33 36  1  0
 32 37  1  0
 37 38  1  0
 38 39  1  0
 38 40  1  0
 37 41  2  0
 41 42  1  0
  7 43  1  0
 43 44  1  0
 43 45  2  0
 45 46  1  0
 45  2  1  0
 41  8  1  0
 28  9  1  0
 26 17  1  0
M  CHG  1  41   1
M  END
>  <score>  (189) 
5.64871

$$$$

     RDKit          3D

 51 54  0  0  0  0  0  0  0  0999 V2000
   16.1157   -8.3693   -1.6590 H   0  0  0  0  0  0  0  0  0  0  0  0
   15.8664   -7.3240   -1.4950 C   0  0  0  0  0  0  0  0  0  0  0  0
   16.7516   -6.4907   -0.7998 C   0  0  0  0  0  0  0  0  0  0  0  0
   17.6965   -6.8846   -0.4316 H   0  0  0  0  0  0  0  0  0  0  0  0
   16.4169   -5.1474   -0.5750 C   0  0  0  0  0  0  0  0  0  0  0  0
   17.1136   -4.5130   -0.0342 H   0  0  0  0  0  0  0  0  0  0  0  0
   15.1960   -4.6199   -1.0325 C   0  0  0  0  0  0  0  0  0  0  0  0
   14.7939   -3.1721   -0.7690 C   0  0  0  0  0  0  0  0  0  0  0  0
   15.1993   -2.2105   -1.8865 C   0  0  0  0  0  0  0  0  0  0  0  0
   15.9596   -2.6437   -2.9850 C   0  0  0  0  0  0  0  0  0  0  0  0
   16.2891   -3.6774   -3.0347 H   0  0  0  0  0  0  0  0  0  0  0  0
   16.2771   -1.7653   -4.0256 C   0  0  0  0  0  0  0  0  0  0  0  0
   16.8662   -2.1079   -4.8676 H   0  0  0  0  0  0  0  0  0  0  0  0
   15.8496   -0.4370   -3.9860 C   0  0  0  0  0  0  0  0  0  0  0  0
   16.1236    0.2410   -4.7908 H   0  0  0  0  0  0  0  0  0  0  0  0
   15.0778    0.0218   -2.9100 C   0  0  0  0  0  0  0  0  0  0  0  0
   14.6180    1.4656   -2.8577 C   0  0  0  0  0  0  0  0  0  0  0  0
   13.6254    1.5172   -2.3981 H   0  0  0  0  0  0  0  0  0  0  0  0
   14.5452    1.8695   -3.8721 H   0  0  0  0  0  0  0  0  0  0  0  0
   15.5679    2.2839   -2.0902 N   0  0  0  0  0  0  0  0  0  0  0  0
   15.6607    3.7494   -2.2226 C   0  0  0  0  0  0  0  0  0  0  0  0
   14.6838    4.2421   -2.2584 H   0  0  0  0  0  0  0  0  0  0  0  0
   16.2160    3.9993   -3.1347 H   0  0  0  0  0  0  0  0  0  0  0  0
   16.4109    4.1837   -0.9639 C   0  0  0  0  0  0  0  0  0  0  0  0
   17.1516    4.9564   -1.1697 H   0  0  0  0  0  0  0  0  0  0  0  0
   15.7086    4.5894   -0.2281 H   0  0  0  0  0  0  0  0  0  0  0  0
   17.0434    2.9050   -0.4232 C   0  0  0  0  0  0  0  0  0  0  0  0
   17.1873    2.9693    0.6597 H   0  0  0  0  0  0  0  0  0  0  0  0
   18.0050    2.7275   -0.9193 H   0  0  0  0  0  0  0  0  0  0  0  0
   16.0687    1.8048   -0.8036 C   0  0  0  0  0  0  0  0  0  0  0  0
   16.5484    0.8209   -0.8957 H   0  0  0  0  0  0  0  0  0  0  0  0
   15.2536    1.7430   -0.0801 H   0  0  0  0  0  0  0  0  0  0  0  0
   14.7624   -0.8708   -1.8693 C   0  0  0  0  0  0  0  0  0  0  0  0
   14.1681   -0.5139   -1.0322 H   0  0  0  0  0  0  0  0  0  0  0  0
   13.2792   -3.0605   -0.5162 C   0  0  0  0  0  0  0  0  0  0  0  0
   12.3743   -3.2739   -1.3217 O   0  0  0  0  0  0  0  0  0  0  0  0
   13.0556   -2.6259    0.7725 N   0  0  0  0  0  0  0  0  0  0  0  0
   11.7588   -2.2909    1.3603 C   0  0  0  0  0  0  0  0  0  0  0  0
   11.7267   -1.2326    1.6446 H   0  0  0  0  0  0  0  0  0  0  0  0
   10.9502   -2.4709    0.6413 H   0  0  0  0  0  0  0  0  0  0  0  0
   11.5664   -2.9001    2.2511 H   0  0  0  0  0  0  0  0  0  0  0  0
   14.2864   -2.5023    1.3766 C   0  0  0  0  0  0  0  0  0  0  0  0
   14.4765   -2.1967    2.6941 N   0  0  0  0  0  0  0  0  0  0  0  0
   15.4171   -2.2473    3.0839 H   0  0  0  0  0  0  0  0  0  0  0  0
   13.6686   -2.1354    3.3115 H   0  0  0  0  0  0  0  0  0  0  0  0
   15.2691   -2.7431    0.5683 N   0  0  0  0  0  4  0  0  0  0  0  0
   16.2321   -2.8537    0.8872 H   0  0  0  0  0  0  0  0  0  0  0  0
   14.3279   -5.4696   -1.7411 C   0  0  0  0  0  0  0  0  0  0  0  0
   13.3865   -5.0848   -2.1171 H   0  0  0  0  0  0  0  0  0  0  0  0
   14.6547   -6.8116   -1.9685 C   0  0  0  0  0  0  0  0  0  0  0  0
   13.9632   -7.4529   -2.5103 H   0  0  0  0  0  0  0  0  0  0  0  0
  1  2  1  0
  2  3  2  0
  3  4  1  0
  3  5  1  0
  5  6  1  0
  5  7  2  0
  7  8  1  0
  8  9  1  0
  9 10  2  0
 10 11  1  0
 10 12  1  0
 12 13  1  0
 12 14  2  0
 14 15  1  0
 14 16  1  0
 16 17  1  0
 17 18  1  0
 17 19  1  0
 17 20  1  0
 20 21  1  0
 21 22  1  0
 21 23  1  0
 21 24  1  0
 24 25  1  0
 24 26  1  0
 24 27  1  0
 27 28  1  0
 27 29  1  0
 27 30  1  0
 30 31  1  0
 30 32  1  0
 16 33  2  0
 33 34  1  0
  8 35  1  0
 35 36  2  0
 35 37  1  0
 37 38  1  0
 38 39  1  0
 38 40  1  0
 38 41  1  0
 37 42  1  0
 42 43  1  0
 43 44  1  0
 43 45  1  0
 42 46  2  0
 46 47  1  0
  7 48  1  0
 48 49  1  0
 48 50  2  0
 50 51  1  0
 50  2  1  0
 46  8  1  0
 33  9  1  0
 30 20  1  0
M  CHG  1  46   1
M  END
>  <score>  (190) 
5.64226

$$$$

     RDKit          3D

 50 53  0  0  0  0  0  0  0  0999 V2000
   16.1003   -8.4537   -1.6221 H   0  0  0  0  0  0  0  0  0  0  0  0
   15.8568   -7.4036   -1.4856 C   0  0  0  0  0  0  0  0  0  0  0  0
   16.7427   -6.5639   -0.8037 C   0  0  0  0  0  0  0  0  0  0  0  0
   17.6768   -6.9555   -0.4112 H   0  0  0  0  0  0  0  0  0  0  0  0
   16.4153   -5.2182   -0.6041 C   0  0  0  0  0  0  0  0  0  0  0  0
   17.0909   -4.5695   -0.0540 H   0  0  0  0  0  0  0  0  0  0  0  0
   15.1982   -4.6923   -1.0630 C   0  0  0  0  0  0  0  0  0  0  0  0
   14.8321   -3.2416   -0.7617 C   0  0  0  0  0  0  0  0  0  0  0  0
   15.3990   -2.2352   -1.7603 C   0  0  0  0  0  0  0  0  0  0  0  0
   15.9385   -2.6370   -2.9928 C   0  0  0  0  0  0  0  0  0  0  0  0
   15.9913   -3.6959   -3.2293 H   0  0  0  0  0  0  0  0  0  0  0  0
   16.4055   -1.6896   -3.9152 C   0  0  0  0  0  0  0  0  0  0  0  0
   16.8333   -2.0087   -4.8605 H   0  0  0  0  0  0  0  0  0  0  0  0
   16.3268   -0.3243   -3.6192 C   0  0  0  0  0  0  0  0  0  0  0  0
   16.6929    0.4121   -4.3295 H   0  0  0  0  0  0  0  0  0  0  0  0
   15.7975    0.1069   -2.3970 C   0  0  0  0  0  0  0  0  0  0  0  0
   15.7150    1.5409   -2.0833 C   0  0  0  0  0  0  0  0  0  0  0  0
   15.3941    2.4909   -3.0676 C   0  0  0  0  0  0  0  0  0  0  0  0
   15.1908    2.1557   -4.0811 H   0  0  0  0  0  0  0  0  0  0  0  0
   15.2906    3.8511   -2.7469 C   0  0  0  0  0  0  0  0  0  0  0  0
   15.0110    4.5847   -3.5007 H   0  0  0  0  0  0  0  0  0  0  0  0
   15.5274    4.2647   -1.4297 C   0  0  0  0  0  0  0  0  0  0  0  0
   15.4683    5.3140   -1.1633 H   0  0  0  0  0  0  0  0  0  0  0  0
   15.8380    3.3255   -0.4309 C   0  0  0  0  0  0  0  0  0  0  0  0
   16.0649    3.6535    0.8801 O   0  0  0  0  0  0  0  0  0  0  0  0
   15.8246    5.0321    1.2069 C   0  0  0  0  0  0  0  0  0  0  0  0
   16.1540    5.7095    0.4104 H   0  0  0  0  0  0  0  0  0  0  0  0
   14.7556    5.2026    1.3660 H   0  0  0  0  0  0  0  0  0  0  0  0
   16.3561    5.2871    2.1271 H   0  0  0  0  0  0  0  0  0  0  0  0
   15.9316    1.9827   -0.7731 C   0  0  0  0  0  0  0  0  0  0  0  0
   16.1900    1.2773    0.0054 H   0  0  0  0  0  0  0  0  0  0  0  0
   15.3384   -0.8562   -1.4812 C   0  0  0  0  0  0  0  0  0  0  0  0
   14.9154   -0.5196   -0.5394 H   0  0  0  0  0  0  0  0  0  0  0  0
   13.3117   -3.0403   -0.5901 C   0  0  0  0  0  0  0  0  0  0  0  0
   12.4455   -3.1508   -1.4594 O   0  0  0  0  0  0  0  0  0  0  0  0
   13.0347   -2.6847    0.7139 N   0  0  0  0  0  0  0  0  0  0  0  0
   11.7324   -2.3154    1.2755 C   0  0  0  0  0  0  0  0  0  0  0  0
   11.7204   -1.2582    1.5601 H   0  0  0  0  0  0  0  0  0  0  0  0
   10.9274   -2.4766    0.5501 H   0  0  0  0  0  0  0  0  0  0  0  0
   11.5050   -2.9141    2.1640 H   0  0  0  0  0  0  0  0  0  0  0  0
   14.2439   -2.6190    1.3732 C   0  0  0  0  0  0  0  0  0  0  0  0
   14.4169   -2.2898    2.6816 N   0  0  0  0  0  0  0  0  0  0  0  0
   15.3543   -2.3217    3.0818 H   0  0  0  0  0  0  0  0  0  0  0  0
   13.6045   -2.1194    3.2693 H   0  0  0  0  0  0  0  0  0  0  0  0
   15.2477   -2.9095    0.6168 N   0  0  0  0  0  4  0  0  0  0  0  0
   16.2132   -2.9689    0.9469 H   0  0  0  0  0  0  0  0  0  0  0  0
   14.3199   -5.5449   -1.7595 C   0  0  0  0  0  0  0  0  0  0  0  0
   13.3665   -5.1664   -2.1159 H   0  0  0  0  0  0  0  0  0  0  0  0
   14.6484   -6.8929   -1.9704 C   0  0  0  0  0  0  0  0  0  0  0  0
   13.9575   -7.5531   -2.4877 H   0  0  0  0  0  0  0  0  0  0  0  0
  1  2  1  0
  2  3  2  0
  3  4  1  0
  3  5  1  0
  5  6  1  0
  5  7  2  0
  7  8  1  0
  8  9  1  0
  9 10  2  0
 10 11  1  0
 10 12  1  0
 12 13  1  0
 12 14  2  0
 14 15  1  0
 14 16  1  0
 16 17  1  0
 17 18  2  0
 18 19  1  0
 18 20  1  0
 20 21  1  0
 20 22  2  0
 22 23  1  0
 22 24  1  0
 24 25  1  0
 25 26  1  0
 26 27  1  0
 26 28  1  0
 26 29  1  0
 24 30  2  0
 30 31  1  0
 16 32  2  0
 32 33  1  0
  8 34  1  0
 34 35  2  0
 34 36  1  0
 36 37  1  0
 37 38  1  0
 37 39  1  0
 37 40  1  0
 36 41  1  0
 41 42  1  0
 42 43  1  0
 42 44  1  0
 41 45  2  0
 45 46  1  0
  7 47  1  0
 47 48  1  0
 47 49  2  0
 49 50  1  0
 49  2  1  0
 45  8  1  0
 32  9  1  0
 30 17  1  0
M  CHG  1  45   1
M  END
>  <score>  (191) 
5.63701

$$$$

     RDKit          3D

 55 58  0  0  0  0  0  0  0  0999 V2000
   16.2838   -8.8797   -1.8183 H   0  0  0  0  0  0  0  0  0  0  0  0
   15.9983   -7.8749   -1.5182 C   0  0  0  0  0  0  0  0  0  0  0  0
   16.8721   -7.1026   -0.7452 C   0  0  0  0  0  0  0  0  0  0  0  0
   17.8413   -7.4957   -0.4547 H   0  0  0  0  0  0  0  0  0  0  0  0
   16.5086   -5.8093   -0.3503 C   0  0  0  0  0  0  0  0  0  0  0  0
   17.2072   -5.1990    0.2134 H   0  0  0  0  0  0  0  0  0  0  0  0
   15.2634   -5.2754   -0.7050 C   0  0  0  0  0  0  0  0  0  0  0  0
   14.9234   -3.8210   -0.4092 C   0  0  0  0  0  0  0  0  0  0  0  0
   15.4342   -2.9305   -1.5199 C   0  0  0  0  0  0  0  0  0  0  0  0
   15.8172   -3.4850   -2.7438 C   0  0  0  0  0  0  0  0  0  0  0  0
   15.8496   -4.5642   -2.8628 H   0  0  0  0  0  0  0  0  0  0  0  0
   16.0968   -2.6670   -3.8277 C   0  0  0  0  0  0  0  0  0  0  0  0
   16.3574   -3.1227   -4.7649 H   0  0  0  0  0  0  0  0  0  0  0  0
   15.9776   -1.2835   -3.7185 C   0  0  0  0  0  0  0  0  0  0  0  0
   16.1532   -0.6605   -4.5882 H   0  0  0  0  0  0  0  0  0  0  0  0
   15.6125   -0.7011   -2.4981 C   0  0  0  0  0  0  0  0  0  0  0  0
   15.4219    0.7490   -2.3636 C   0  0  0  0  0  0  0  0  0  0  0  0
   15.5286    1.3476   -1.1008 C   0  0  0  0  0  0  0  0  0  0  0  0
   15.8002    0.7414   -0.2409 H   0  0  0  0  0  0  0  0  0  0  0  0
   15.2927    2.7113   -0.9384 C   0  0  0  0  0  0  0  0  0  0  0  0
   15.3963    3.1408    0.0514 H   0  0  0  0  0  0  0  0  0  0  0  0
   14.9432    3.5186   -2.0292 C   0  0  0  0  0  0  0  0  0  0  0  0
   14.7485    5.0049   -1.8529 C   0  0  0  0  0  0  0  0  0  0  0  0
   15.0921    5.5101   -2.7569 H   0  0  0  0  0  0  0  0  0  0  0  0
   13.2651    5.3233   -1.6736 C   0  0  0  0  0  0  0  0  0  0  0  0
   12.7066    5.0662   -2.5784 H   0  0  0  0  0  0  0  0  0  0  0  0
   13.1198    6.3876   -1.4751 H   0  0  0  0  0  0  0  0  0  0  0  0
   12.8512    4.7475   -0.8437 H   0  0  0  0  0  0  0  0  0  0  0  0
   15.5976    5.4958   -0.6733 C   0  0  0  0  0  0  0  0  0  0  0  0
   15.2803    5.0176    0.2563 H   0  0  0  0  0  0  0  0  0  0  0  0
   15.5154    6.5777   -0.5515 H   0  0  0  0  0  0  0  0  0  0  0  0
   16.6455    5.2273   -0.8451 H   0  0  0  0  0  0  0  0  0  0  0  0
   14.7937    2.9153   -3.2848 C   0  0  0  0  0  0  0  0  0  0  0  0
   14.4478    3.5119   -4.1208 H   0  0  0  0  0  0  0  0  0  0  0  0
   15.0587    1.5484   -3.4600 C   0  0  0  0  0  0  0  0  0  0  0  0
   14.9430    1.0953   -4.4423 H   0  0  0  0  0  0  0  0  0  0  0  0
   15.3611   -1.5347   -1.3995 C   0  0  0  0  0  0  0  0  0  0  0  0
   15.0331   -1.0856   -0.4652 H   0  0  0  0  0  0  0  0  0  0  0  0
   13.4183   -3.5517   -0.2391 C   0  0  0  0  0  0  0  0  0  0  0  0
   12.5288   -3.8380   -1.0361 O   0  0  0  0  0  0  0  0  0  0  0  0
   13.1997   -2.8586    0.9357 N   0  0  0  0  0  0  0  0  0  0  0  0
   11.9354   -2.2816    1.4001 C   0  0  0  0  0  0  0  0  0  0  0  0
   11.7798   -2.4790    2.4682 H   0  0  0  0  0  0  0  0  0  0  0  0
   11.0952   -2.7206    0.8512 H   0  0  0  0  0  0  0  0  0  0  0  0
   11.9258   -1.1948    1.2482 H   0  0  0  0  0  0  0  0  0  0  0  0
   14.4100   -2.7692    1.5754 C   0  0  0  0  0  0  0  0  0  0  0  0
   14.6253   -2.1344    2.7626 N   0  0  0  0  0  0  0  0  0  0  0  0
   15.5156   -2.2880    3.2224 H   0  0  0  0  0  0  0  0  0  0  0  0
   13.8309   -1.7967    3.3063 H   0  0  0  0  0  0  0  0  0  0  0  0
   15.3597   -3.3492    0.9175 N   0  0  0  0  0  4  0  0  0  0  0  0
   16.3340   -3.3092    1.2038 H   0  0  0  0  0  0  0  0  0  0  0  0
   14.4006   -6.0525   -1.4983 C   0  0  0  0  0  0  0  0  0  0  0  0
   13.4539   -5.6394   -1.8317 H   0  0  0  0  0  0  0  0  0  0  0  0
   14.7646   -7.3417   -1.9065 C   0  0  0  0  0  0  0  0  0  0  0  0
   14.0907   -7.9205   -2.5309 H   0  0  0  0  0  0  0  0  0  0  0  0
  1  2  1  0
  2  3  2  0
  3  4  1  0
  3  5  1  0
  5  6  1  0
  5  7  2  0
  7  8  1  0
  8  9  1  0
  9 10  2  0
 10 11  1  0
 10 12  1  0
 12 13  1  0
 12 14  2  0
 14 15  1  0
 14 16  1  0
 16 17  1  0
 17 18  2  0
 18 19  1  0
 18 20  1  0
 20 21  1  0
 20 22  2  0
 22 23  1  0
 23 24  1  0
 23 25  1  0
 25 26  1  0
 25 27  1  0
 25 28  1  0
 23 29  1  0
 29 30  1  0
 29 31  1  0
 29 32  1  0
 22 33  1  0
 33 34  1  0
 33 35  2  0
 35 36  1  0
 16 37  2  0
 37 38  1  0
  8 39  1  0
 39 40  2  0
 39 41  1  0
 41 42  1  0
 42 43  1  0
 42 44  1  0
 42 45  1  0
 41 46  1  0
 46 47  1  0
 47 48  1  0
 47 49  1  0
 46 50  2  0
 50 51  1  0
  7 52  1  0
 52 53  1  0
 52 54  2  0
 54 55  1  0
 54  2  1  0
 50  8  1  0
 37  9  1  0
 35 17  1  0
M  CHG  1  50   1
M  END
>  <score>  (192) 
5.63331

$$$$

     RDKit          3D

 49 51  0  0  0  0  0  0  0  0999 V2000
   16.1346   -8.4748   -1.7173 H   0  0  0  0  0  0  0  0  0  0  0  0
   15.8916   -7.4335   -1.5299 C   0  0  0  0  0  0  0  0  0  0  0  0
   16.7861   -6.6157   -0.8348 C   0  0  0  0  0  0  0  0  0  0  0  0
   17.7262   -7.0225   -0.4753 H   0  0  0  0  0  0  0  0  0  0  0  0
   16.4637   -5.2778   -0.5883 C   0  0  0  0  0  0  0  0  0  0  0  0
   17.1612   -4.6588   -0.0328 H   0  0  0  0  0  0  0  0  0  0  0  0
   15.2451   -4.7331   -1.0200 C   0  0  0  0  0  0  0  0  0  0  0  0
   14.8970   -3.2802   -0.7013 C   0  0  0  0  0  0  0  0  0  0  0  0
   15.3873   -2.2803   -1.7444 C   0  0  0  0  0  0  0  0  0  0  0  0
   15.9064   -2.6694   -2.9933 C   0  0  0  0  0  0  0  0  0  0  0  0
   15.9841   -3.7232   -3.2371 H   0  0  0  0  0  0  0  0  0  0  0  0
   16.3349   -1.7152   -3.9283 C   0  0  0  0  0  0  0  0  0  0  0  0
   16.7630   -2.0258   -4.8778 H   0  0  0  0  0  0  0  0  0  0  0  0
   16.2217   -0.3542   -3.6291 C   0  0  0  0  0  0  0  0  0  0  0  0
   16.5530    0.4019   -4.3327 H   0  0  0  0  0  0  0  0  0  0  0  0
   15.7058    0.0461   -2.3959 C   0  0  0  0  0  0  0  0  0  0  0  0
   15.6099    1.3809   -2.0442 N   0  0  0  0  0  0  0  0  0  0  0  0
   15.5590    1.6029   -1.0545 H   0  0  0  0  0  0  0  0  0  0  0  0
   15.5106    2.4159   -2.9542 C   0  0  0  0  0  0  0  0  0  0  0  0
   15.3440    2.1691   -4.1440 O   0  0  0  0  0  0  0  0  0  0  0  0
   15.6731    3.8673   -2.4613 C   0  0  0  0  0  0  0  0  0  0  0  0
   15.6354    4.5367   -3.3208 H   0  0  0  0  0  0  0  0  0  0  0  0
   17.0347    4.0648   -1.7753 C   0  0  0  0  0  0  0  0  0  0  0  0
   17.8411    4.0208   -2.5179 H   0  0  0  0  0  0  0  0  0  0  0  0
   17.0722    5.0396   -1.2868 H   0  0  0  0  0  0  0  0  0  0  0  0
   17.2055    3.2995   -1.0099 H   0  0  0  0  0  0  0  0  0  0  0  0
   14.5358    4.2945   -1.5220 C   0  0  0  0  0  0  0  0  0  0  0  0
   14.5416    3.7055   -0.5996 H   0  0  0  0  0  0  0  0  0  0  0  0
   14.6317    5.3536   -1.2610 H   0  0  0  0  0  0  0  0  0  0  0  0
   13.5700    4.1683   -2.0178 H   0  0  0  0  0  0  0  0  0  0  0  0
   15.2930   -0.9053   -1.4728 C   0  0  0  0  0  0  0  0  0  0  0  0
   14.8869   -0.5607   -0.5282 H   0  0  0  0  0  0  0  0  0  0  0  0
   13.3904   -3.0882   -0.4762 C   0  0  0  0  0  0  0  0  0  0  0  0
   12.4866   -3.2587   -1.2946 O   0  0  0  0  0  0  0  0  0  0  0  0
   13.1765   -2.6770    0.8239 N   0  0  0  0  0  0  0  0  0  0  0  0
   11.9023   -2.2632    1.4013 C   0  0  0  0  0  0  0  0  0  0  0  0
   11.0591   -2.7667    0.9157 H   0  0  0  0  0  0  0  0  0  0  0  0
   11.8925   -2.5220    2.4638 H   0  0  0  0  0  0  0  0  0  0  0  0
   11.7542   -1.1822    1.3027 H   0  0  0  0  0  0  0  0  0  0  0  0
   14.4015   -2.5559    1.4364 C   0  0  0  0  0  0  0  0  0  0  0  0
   14.5668   -2.1012    2.7118 N   0  0  0  0  0  0  0  0  0  0  0  0
   15.5055   -2.1495    3.0997 H   0  0  0  0  0  0  0  0  0  0  0  0
   13.7713   -2.1757    3.3403 H   0  0  0  0  0  0  0  0  0  0  0  0
   15.3735   -2.9069    0.6568 N   0  0  0  0  0  4  0  0  0  0  0  0
   16.3605   -2.8012    0.8965 H   0  0  0  0  0  0  0  0  0  0  0  0
   14.3606   -5.5627   -1.7399 C   0  0  0  0  0  0  0  0  0  0  0  0
   13.4116   -5.1715   -2.0957 H   0  0  0  0  0  0  0  0  0  0  0  0
   14.6822   -6.9046   -1.9892 C   0  0  0  0  0  0  0  0  0  0  0  0
   13.9854   -7.5394   -2.5298 H   0  0  0  0  0  0  0  0  0  0  0  0
  1  2  1  0
  2  3  2  0
  3  4  1  0
  3  5  1  0
  5  6  1  0
  5  7  2  0
  7  8  1  0
  8  9  1  0
  9 10  2  0
 10 11  1  0
 10 12  1  0
 12 13  1  0
 12 14  2  0
 14 15  1  0
 14 16  1  0
 16 17  1  0
 17 18  1  0
 17 19  1  0
 19 20  2  0
 19 21  1  0
 21 22  1  0
 21 23  1  0
 23 24  1  0
 23 25  1  0
 23 26  1  0
 21 27  1  0
 27 28  1  0
 27 29  1  0
 27 30  1  0
 16 31  2  0
 31 32  1  0
  8 33  1  0
 33 34  2  0
 33 35  1  0
 35 36  1  0
 36 37  1  0
 36 38  1  0
 36 39  1  0
 35 40  1  0
 40 41  1  0
 41 42  1  0
 41 43  1  0
 40 44  2  0
 44 45  1  0
  7 46  1  0
 46 47  1  0
 46 48  2  0
 48 49  1  0
 48  2  1  0
 44  8  1  0
 31  9  1  0
M  CHG  1  44   1
M  END
>  <score>  (193) 
5.63328

$$$$

     RDKit          3D

 53 56  0  0  0  0  0  0  0  0999 V2000
   16.1338   -8.4744   -1.7322 H   0  0  0  0  0  0  0  0  0  0  0  0
   15.8874   -7.4379   -1.5252 C   0  0  0  0  0  0  0  0  0  0  0  0
   16.7847   -6.6327   -0.8128 C   0  0  0  0  0  0  0  0  0  0  0  0
   17.7375   -7.0304   -0.4749 H   0  0  0  0  0  0  0  0  0  0  0  0
   16.4564   -5.3047   -0.5303 C   0  0  0  0  0  0  0  0  0  0  0  0
   17.1573   -4.6737    0.0098 H   0  0  0  0  0  0  0  0  0  0  0  0
   15.2289   -4.7702   -0.9450 C   0  0  0  0  0  0  0  0  0  0  0  0
   14.8807   -3.3288   -0.6483 C   0  0  0  0  0  0  0  0  0  0  0  0
   15.4718   -2.3861   -1.6825 C   0  0  0  0  0  0  0  0  0  0  0  0
   15.8974   -2.8307   -2.9447 C   0  0  0  0  0  0  0  0  0  0  0  0
   15.8254   -3.8879   -3.1884 H   0  0  0  0  0  0  0  0  0  0  0  0
   16.3915   -1.9224   -3.8793 C   0  0  0  0  0  0  0  0  0  0  0  0
   16.7042   -2.2832   -4.8504 H   0  0  0  0  0  0  0  0  0  0  0  0
   16.4614   -0.5616   -3.5745 C   0  0  0  0  0  0  0  0  0  0  0  0
   16.8561    0.1137   -4.3302 H   0  0  0  0  0  0  0  0  0  0  0  0
   16.0121   -0.0866   -2.3237 C   0  0  0  0  0  0  0  0  0  0  0  0
   15.9901    1.3622   -2.0213 C   0  0  0  0  0  0  0  0  0  0  0  0
   16.0654    2.1773   -2.9330 O   0  0  0  0  0  0  0  0  0  0  0  0
   15.7832    1.8427   -0.7364 N   0  0  0  0  0  0  0  0  0  0  0  0
   15.5918    1.1394   -0.0260 H   0  0  0  0  0  0  0  0  0  0  0  0
   15.2109    3.1683   -0.4978 C   0  0  0  0  0  0  0  0  0  0  0  0
   14.1933    3.1795   -0.9067 H   0  0  0  0  0  0  0  0  0  0  0  0
   15.9395    4.3673   -1.1092 C   0  0  0  0  0  0  0  0  0  0  0  0
   15.8680    4.3719   -2.2013 H   0  0  0  0  0  0  0  0  0  0  0  0
   16.9991    4.4257   -0.8237 H   0  0  0  0  0  0  0  0  0  0  0  0
   15.1649    5.5138   -0.4575 C   0  0  0  0  0  0  0  0  0  0  0  0
   14.1853    5.6216   -0.9363 H   0  0  0  0  0  0  0  0  0  0  0  0
   15.6606    6.4822   -0.5242 H   0  0  0  0  0  0  0  0  0  0  0  0
   15.0141    5.0713    0.9975 C   0  0  0  0  0  0  0  0  0  0  0  0
   14.0625    5.4208    1.4179 H   0  0  0  0  0  0  0  0  0  0  0  0
   15.8402    5.4790    1.5931 H   0  0  0  0  0  0  0  0  0  0  0  0
   15.0914    3.5398    0.9783 C   0  0  0  0  0  0  0  0  0  0  0  0
   15.9576    3.1959    1.5567 H   0  0  0  0  0  0  0  0  0  0  0  0
   14.1857    3.1034    1.4083 H   0  0  0  0  0  0  0  0  0  0  0  0
   15.5357   -1.0190   -1.3877 C   0  0  0  0  0  0  0  0  0  0  0  0
   15.1746   -0.6906   -0.4143 H   0  0  0  0  0  0  0  0  0  0  0  0
   13.3622   -3.1056   -0.4814 C   0  0  0  0  0  0  0  0  0  0  0  0
   12.4817   -3.3174   -1.3138 O   0  0  0  0  0  0  0  0  0  0  0  0
   13.1015   -2.6329    0.7893 N   0  0  0  0  0  0  0  0  0  0  0  0
   11.7911   -2.2832    1.3410 C   0  0  0  0  0  0  0  0  0  0  0  0
   11.5753   -2.8794    2.2359 H   0  0  0  0  0  0  0  0  0  0  0  0
   10.9963   -2.4721    0.6086 H   0  0  0  0  0  0  0  0  0  0  0  0
   11.7597   -1.2210    1.6104 H   0  0  0  0  0  0  0  0  0  0  0  0
   14.3105   -2.5530    1.4440 C   0  0  0  0  0  0  0  0  0  0  0  0
   14.4976   -2.1154    2.7186 N   0  0  0  0  0  0  0  0  0  0  0  0
   13.6843   -2.0971    3.3311 H   0  0  0  0  0  0  0  0  0  0  0  0
   15.4164   -2.2806    3.1273 H   0  0  0  0  0  0  0  0  0  0  0  0
   15.3010   -2.9562    0.7190 N   0  0  0  0  0  4  0  0  0  0  0  0
   16.2687   -2.9934    1.0457 H   0  0  0  0  0  0  0  0  0  0  0  0
   14.3484   -5.5754   -1.6841 C   0  0  0  0  0  0  0  0  0  0  0  0
   13.4099   -5.1630   -2.0433 H   0  0  0  0  0  0  0  0  0  0  0  0
   14.6725   -6.9039   -1.9706 C   0  0  0  0  0  0  0  0  0  0  0  0
   13.9786   -7.5154   -2.5403 H   0  0  0  0  0  0  0  0  0  0  0  0
  1  2  1  0
  2  3  2  0
  3  4  1  0
  3  5  1  0
  5  6  1  0
  5  7  2  0
  7  8  1  0
  8  9  1  0
  9 10  2  0
 10 11  1  0
 10 12  1  0
 12 13  1  0
 12 14  2  0
 14 15  1  0
 14 16  1  0
 16 17  1  0
 17 18  2  0
 17 19  1  0
 19 20  1  0
 19 21  1  0
 21 22  1  0
 21 23  1  0
 23 24  1  0
 23 25  1  0
 23 26  1  0
 26 27  1  0
 26 28  1  0
 26 29  1  0
 29 30  1  0
 29 31  1  0
 29 32  1  0
 32 33  1  0
 32 34  1  0
 16 35  2  0
 35 36  1  0
  8 37  1  0
 37 38  2  0
 37 39  1  0
 39 40  1  0
 40 41  1  0
 40 42  1  0
 40 43  1  0
 39 44  1  0
 44 45  1  0
 45 46  1  0
 45 47  1  0
 44 48  2  0
 48 49  1  0
  7 50  1  0
 50 51  1  0
 50 52  2  0
 52 53  1  0
 52  2  1  0
 48  8  1  0
 35  9  1  0
 32 21  1  0
M  CHG  1  48   1
M  END
>  <score>  (194) 
5.62562

$$$$

     RDKit          3D

 42 44  0  0  0  0  0  0  0  0999 V2000
   16.1270   -8.4905   -1.6107 H   0  0  0  0  0  0  0  0  0  0  0  0
   15.8542   -7.4472   -1.4691 C   0  0  0  0  0  0  0  0  0  0  0  0
   16.7261   -6.5882   -0.7976 C   0  0  0  0  0  0  0  0  0  0  0  0
   17.6762   -6.9549   -0.4201 H   0  0  0  0  0  0  0  0  0  0  0  0
   16.3836   -5.2447   -0.6081 C   0  0  0  0  0  0  0  0  0  0  0  0
   17.0700   -4.5976   -0.0710 H   0  0  0  0  0  0  0  0  0  0  0  0
   15.1638   -4.7213   -1.0721 C   0  0  0  0  0  0  0  0  0  0  0  0
   14.8069   -3.2511   -0.7873 C   0  0  0  0  0  0  0  0  0  0  0  0
   15.3899   -2.2455   -1.7829 C   0  0  0  0  0  0  0  0  0  0  0  0
   15.9471   -2.6427   -3.0106 C   0  0  0  0  0  0  0  0  0  0  0  0
   16.0081   -3.6960   -3.2698 H   0  0  0  0  0  0  0  0  0  0  0  0
   16.4232   -1.6913   -3.9198 C   0  0  0  0  0  0  0  0  0  0  0  0
   16.8582   -2.0055   -4.8620 H   0  0  0  0  0  0  0  0  0  0  0  0
   16.3457   -0.3307   -3.6266 C   0  0  0  0  0  0  0  0  0  0  0  0
   16.7086    0.3908   -4.3587 H   0  0  0  0  0  0  0  0  0  0  0  0
   15.8005    0.0982   -2.4038 C   0  0  0  0  0  0  0  0  0  0  0  0
   15.7066    1.5400   -2.1071 C   0  0  0  0  0  0  0  0  0  0  0  0
   15.7037    2.3331   -3.0425 O   0  0  0  0  0  0  0  0  0  0  0  0
   15.6279    2.0314   -0.8009 N   0  0  0  0  0  0  0  0  0  0  0  0
   15.7657    1.3306   -0.0729 H   0  0  0  0  0  0  0  0  0  0  0  0
   15.4987    3.4341   -0.4280 N   0  0  0  0  0  0  0  0  0  0  0  0
   15.3506    3.5905    0.5769 H   0  0  0  0  0  0  0  0  0  0  0  0
   16.2541    4.0212   -0.8044 H   0  0  0  0  0  0  0  0  0  0  0  0
   15.3206   -0.8676   -1.5008 C   0  0  0  0  0  0  0  0  0  0  0  0
   14.8749   -0.5475   -0.5629 H   0  0  0  0  0  0  0  0  0  0  0  0
   13.2918   -3.0224   -0.6093 C   0  0  0  0  0  0  0  0  0  0  0  0
   12.4215   -3.0796   -1.4781 O   0  0  0  0  0  0  0  0  0  0  0  0
   13.0200   -2.6695    0.6992 N   0  0  0  0  0  0  0  0  0  0  0  0
   11.7189   -2.3128    1.2623 C   0  0  0  0  0  0  0  0  0  0  0  0
   11.5005   -2.9198    2.1449 H   0  0  0  0  0  0  0  0  0  0  0  0
   11.6924   -1.2605    1.5595 H   0  0  0  0  0  0  0  0  0  0  0  0
   10.9151   -2.4754    0.5385 H   0  0  0  0  0  0  0  0  0  0  0  0
   14.2233   -2.6308    1.3653 C   0  0  0  0  0  0  0  0  0  0  0  0
   14.3909   -2.3382    2.6894 N   0  0  0  0  0  0  0  0  0  0  0  0
   13.5797   -2.1276    3.2671 H   0  0  0  0  0  0  0  0  0  0  0  0
   15.3256   -2.3591    3.0970 H   0  0  0  0  0  0  0  0  0  0  0  0
   15.2174   -2.9042    0.5900 N   0  0  0  0  0  4  0  0  0  0  0  0
   16.1909   -2.8967    0.8957 H   0  0  0  0  0  0  0  0  0  0  0  0
   14.2990   -5.5982   -1.7686 C   0  0  0  0  0  0  0  0  0  0  0  0
   13.3521   -5.2491   -2.1710 H   0  0  0  0  0  0  0  0  0  0  0  0
   14.6427   -6.9496   -1.9601 C   0  0  0  0  0  0  0  0  0  0  0  0
   13.9732   -7.6230   -2.4889 H   0  0  0  0  0  0  0  0  0  0  0  0
  1  2  1  0
  2  3  2  0
  3  4  1  0
  3  5  1  0
  5  6  1  0
  5  7  2  0
  7  8  1  0
  8  9  1  0
  9 10  2  0
 10 11  1  0
 10 12  1  0
 12 13  1  0
 12 14  2  0
 14 15  1  0
 14 16  1  0
 16 17  1  0
 17 18  2  0
 17 19  1  0
 19 20  1  0
 19 21  1  0
 21 22  1  0
 21 23  1  0
 16 24  2  0
 24 25  1  0
  8 26  1  0
 26 27  2  0
 26 28  1  0
 28 29  1  0
 29 30  1  0
 29 31  1  0
 29 32  1  0
 28 33  1  0
 33 34  1  0
 34 35  1  0
 34 36  1  0
 33 37  2  0
 37 38  1  0
  7 39  1  0
 39 40  1  0
 39 41  2  0
 41 42  1  0
 41  2  1  0
 37  8  1  0
 24  9  1  0
M  CHG  1  37   1
M  END
>  <score>  (195) 
5.6228

$$$$

     RDKit          3D

 53 56  0  0  0  0  0  0  0  0999 V2000
   16.1253   -8.3982   -1.7009 H   0  0  0  0  0  0  0  0  0  0  0  0
   15.8771   -7.3628   -1.4952 C   0  0  0  0  0  0  0  0  0  0  0  0
   16.7775   -6.5517   -0.7952 C   0  0  0  0  0  0  0  0  0  0  0  0
   17.7284   -6.9562   -0.4558 H   0  0  0  0  0  0  0  0  0  0  0  0
   16.4526   -5.2153   -0.5373 C   0  0  0  0  0  0  0  0  0  0  0  0
   17.1493   -4.5886    0.0126 H   0  0  0  0  0  0  0  0  0  0  0  0
   15.2246   -4.6797   -0.9642 C   0  0  0  0  0  0  0  0  0  0  0  0
   14.8525   -3.2343   -0.6506 C   0  0  0  0  0  0  0  0  0  0  0  0
   15.4475   -2.2425   -1.6410 C   0  0  0  0  0  0  0  0  0  0  0  0
   15.9339   -2.6574   -2.8924 C   0  0  0  0  0  0  0  0  0  0  0  0
   15.9578   -3.7140   -3.1397 H   0  0  0  0  0  0  0  0  0  0  0  0
   16.3669   -1.7224   -3.8399 C   0  0  0  0  0  0  0  0  0  0  0  0
   16.7533   -2.0463   -4.8027 H   0  0  0  0  0  0  0  0  0  0  0  0
   16.2979   -0.3557   -3.5531 C   0  0  0  0  0  0  0  0  0  0  0  0
   16.6329    0.3717   -4.2871 H   0  0  0  0  0  0  0  0  0  0  0  0
   15.8250    0.0856   -2.3112 C   0  0  0  0  0  0  0  0  0  0  0  0
   15.7521    1.5164   -2.0024 C   0  0  0  0  0  0  0  0  0  0  0  0
   15.4183    2.4426   -3.0036 C   0  0  0  0  0  0  0  0  0  0  0  0
   15.2371    2.0951   -4.0146 H   0  0  0  0  0  0  0  0  0  0  0  0
   15.2901    3.8004   -2.7004 C   0  0  0  0  0  0  0  0  0  0  0  0
   14.9974    4.5165   -3.4605 H   0  0  0  0  0  0  0  0  0  0  0  0
   15.5224    4.2367   -1.3974 C   0  0  0  0  0  0  0  0  0  0  0  0
   15.4210    5.2864   -1.1454 H   0  0  0  0  0  0  0  0  0  0  0  0
   15.8840    3.3294   -0.3985 C   0  0  0  0  0  0  0  0  0  0  0  0
   16.1234    3.7731    0.8969 N   0  0  0  0  0  0  0  0  0  0  0  0
   16.6893    3.2093    1.5182 H   0  0  0  0  0  0  0  0  0  0  0  0
   15.5276    4.8984    1.4195 C   0  0  0  0  0  0  0  0  0  0  0  0
   14.6704    5.4978    0.8001 O   0  0  0  0  0  0  0  0  0  0  0  0
   15.9361    5.4054    2.7828 C   0  0  0  0  0  0  0  0  0  0  0  0
   15.7882    6.4867    2.8355 H   0  0  0  0  0  0  0  0  0  0  0  0
   15.3273    4.9207    3.5459 H   0  0  0  0  0  0  0  0  0  0  0  0
   16.9889    5.1838    2.9585 H   0  0  0  0  0  0  0  0  0  0  0  0
   15.9926    1.9768   -0.6984 C   0  0  0  0  0  0  0  0  0  0  0  0
   16.2542    1.2824    0.0935 H   0  0  0  0  0  0  0  0  0  0  0  0
   15.4044   -0.8641   -1.3690 C   0  0  0  0  0  0  0  0  0  0  0  0
   15.0028   -0.5195   -0.4207 H   0  0  0  0  0  0  0  0  0  0  0  0
   13.3232   -3.0059   -0.5627 C   0  0  0  0  0  0  0  0  0  0  0  0
   12.4789   -3.2694   -1.4145 O   0  0  0  0  0  0  0  0  0  0  0  0
   12.9808   -2.4826    0.6690 N   0  0  0  0  0  0  0  0  0  0  0  0
   11.6187   -2.2498    1.1809 C   0  0  0  0  0  0  0  0  0  0  0  0
   11.4035   -2.9284    2.0154 H   0  0  0  0  0  0  0  0  0  0  0  0
   10.8760   -2.4321    0.3900 H   0  0  0  0  0  0  0  0  0  0  0  0
   11.4919   -1.2207    1.5460 H   0  0  0  0  0  0  0  0  0  0  0  0
   14.1564   -2.4609    1.3953 C   0  0  0  0  0  0  0  0  0  0  0  0
   14.3236   -2.0855    2.6883 N   0  0  0  0  0  0  0  0  0  0  0  0
   15.2057   -2.3204    3.1348 H   0  0  0  0  0  0  0  0  0  0  0  0
   13.4974   -1.9032    3.2514 H   0  0  0  0  0  0  0  0  0  0  0  0
   15.1884   -2.8813    0.7402 N   0  0  0  0  0  4  0  0  0  0  0  0
   16.1420   -2.8555    1.1077 H   0  0  0  0  0  0  0  0  0  0  0  0
   14.3458   -5.4992   -1.6982 C   0  0  0  0  0  0  0  0  0  0  0  0
   13.4012   -5.1004   -2.0596 H   0  0  0  0  0  0  0  0  0  0  0  0
   14.6663   -6.8356   -1.9581 C   0  0  0  0  0  0  0  0  0  0  0  0
   13.9767   -7.4592   -2.5222 H   0  0  0  0  0  0  0  0  0  0  0  0
  1  2  1  0
  2  3  2  0
  3  4  1  0
  3  5  1  0
  5  6  1  0
  5  7  2  0
  7  8  1  0
  8  9  1  0
  9 10  2  0
 10 11  1  0
 10 12  1  0
 12 13  1  0
 12 14  2  0
 14 15  1  0
 14 16  1  0
 16 17  1  0
 17 18  2  0
 18 19  1  0
 18 20  1  0
 20 21  1  0
 20 22  2  0
 22 23  1  0
 22 24  1  0
 24 25  1  0
 25 26  1  0
 25 27  1  0
 27 28  2  0
 27 29  1  0
 29 30  1  0
 29 31  1  0
 29 32  1  0
 24 33  2  0
 33 34  1  0
 16 35  2  0
 35 36  1  0
  8 37  1  0
 37 38  2  0
 37 39  1  0
 39 40  1  0
 40 41  1  0
 40 42  1  0
 40 43  1  0
 39 44  1  0
 44 45  1  0
 45 46  1  0
 45 47  1  0
 44 48  2  0
 48 49  1  0
  7 50  1  0
 50 51  1  0
 50 52  2  0
 52 53  1  0
 52  2  1  0
 48  8  1  0
 35  9  1  0
 33 17  1  0
M  CHG  1  48   1
M  END
>  <score>  (196) 
5.61842

$$$$

     RDKit          3D

 49 51  0  0  0  0  0  0  0  0999 V2000
   16.0718   -8.4427   -1.7372 H   0  0  0  0  0  0  0  0  0  0  0  0
   15.8155   -7.4007   -1.5645 C   0  0  0  0  0  0  0  0  0  0  0  0
   16.7135   -6.5583   -0.9042 C   0  0  0  0  0  0  0  0  0  0  0  0
   17.6639   -6.9475   -0.5529 H   0  0  0  0  0  0  0  0  0  0  0  0
   16.3915   -5.2158   -0.6843 C   0  0  0  0  0  0  0  0  0  0  0  0
   17.0890   -4.5729   -0.1533 H   0  0  0  0  0  0  0  0  0  0  0  0
   15.1568   -4.6925   -1.1035 C   0  0  0  0  0  0  0  0  0  0  0  0
   14.7947   -3.2486   -0.7791 C   0  0  0  0  0  0  0  0  0  0  0  0
   15.3665   -2.2450   -1.7687 C   0  0  0  0  0  0  0  0  0  0  0  0
   15.9038   -2.6231   -3.0159 C   0  0  0  0  0  0  0  0  0  0  0  0
   15.9609   -3.6707   -3.2846 H   0  0  0  0  0  0  0  0  0  0  0  0
   16.3732   -1.6613   -3.9218 C   0  0  0  0  0  0  0  0  0  0  0  0
   16.8083   -1.9533   -4.8760 H   0  0  0  0  0  0  0  0  0  0  0  0
   16.2868   -0.3051   -3.5941 C   0  0  0  0  0  0  0  0  0  0  0  0
   16.6430    0.4579   -4.2794 H   0  0  0  0  0  0  0  0  0  0  0  0
   15.7499    0.0809   -2.3622 C   0  0  0  0  0  0  0  0  0  0  0  0
   15.6687    1.4169   -1.9985 N   0  0  0  0  0  0  0  0  0  0  0  0
   15.5822    1.6415   -1.0142 H   0  0  0  0  0  0  0  0  0  0  0  0
   15.4983    2.4380   -2.9048 C   0  0  0  0  0  0  0  0  0  0  0  0
   15.3362    2.1882   -4.0898 O   0  0  0  0  0  0  0  0  0  0  0  0
   15.5638    3.8921   -2.4514 C   0  0  0  0  0  0  0  0  0  0  0  0
   16.0827    4.4604   -3.2241 H   0  0  0  0  0  0  0  0  0  0  0  0
   16.1620    3.9575   -1.5394 H   0  0  0  0  0  0  0  0  0  0  0  0
   14.1837    4.5189   -2.2128 C   0  0  0  0  0  0  0  0  0  0  0  0
   13.5513    4.4039   -3.1005 H   0  0  0  0  0  0  0  0  0  0  0  0
   14.3017    5.5923   -2.0288 H   0  0  0  0  0  0  0  0  0  0  0  0
   13.5081    3.8743   -1.0065 C   0  0  0  0  0  0  0  0  0  0  0  0
   14.1364    3.9866   -0.1173 H   0  0  0  0  0  0  0  0  0  0  0  0
   13.3413    2.8081   -1.1875 H   0  0  0  0  0  0  0  0  0  0  0  0
   12.5429    4.3530   -0.8134 H   0  0  0  0  0  0  0  0  0  0  0  0
   15.2990   -0.8776   -1.4681 C   0  0  0  0  0  0  0  0  0  0  0  0
   14.8884   -0.5324   -0.5242 H   0  0  0  0  0  0  0  0  0  0  0  0
   13.2754   -3.0173   -0.6403 C   0  0  0  0  0  0  0  0  0  0  0  0
   12.4010   -3.2018   -1.4861 O   0  0  0  0  0  0  0  0  0  0  0  0
   13.0070   -2.6024    0.6498 N   0  0  0  0  0  0  0  0  0  0  0  0
   11.7001   -2.2465    1.1910 C   0  0  0  0  0  0  0  0  0  0  0  0
   11.4839   -2.8389    2.0847 H   0  0  0  0  0  0  0  0  0  0  0  0
   11.6571   -1.1935    1.4730 H   0  0  0  0  0  0  0  0  0  0  0  0
   10.9137   -2.4072    0.4475 H   0  0  0  0  0  0  0  0  0  0  0  0
   14.1884   -2.6314    1.3619 C   0  0  0  0  0  0  0  0  0  0  0  0
   14.3515   -2.3958    2.6991 N   0  0  0  0  0  0  0  0  0  0  0  0
   13.5954   -1.9648    3.2234 H   0  0  0  0  0  0  0  0  0  0  0  0
   15.3035   -2.3291    3.0536 H   0  0  0  0  0  0  0  0  0  0  0  0
   15.1949   -2.9296    0.6135 N   0  0  0  0  0  4  0  0  0  0  0  0
   16.1588   -2.9929    0.9573 H   0  0  0  0  0  0  0  0  0  0  0  0
   14.2697   -5.5409   -1.7936 C   0  0  0  0  0  0  0  0  0  0  0  0
   13.3075   -5.1711   -2.1391 H   0  0  0  0  0  0  0  0  0  0  0  0
   14.5959   -6.8858   -2.0154 C   0  0  0  0  0  0  0  0  0  0  0  0
   13.9037   -7.5427   -2.5325 H   0  0  0  0  0  0  0  0  0  0  0  0
  1  2  1  0
  2  3  2  0
  3  4  1  0
  3  5  1  0
  5  6  1  0
  5  7  2  0
  7  8  1  0
  8  9  1  0
  9 10  2  0
 10 11  1  0
 10 12  1  0
 12 13  1  0
 12 14  2  0
 14 15  1  0
 14 16  1  0
 16 17  1  0
 17 18  1  0
 17 19  1  0
 19 20  2  0
 19 21  1  0
 21 22  1  0
 21 23  1  0
 21 24  1  0
 24 25  1  0
 24 26  1  0
 24 27  1  0
 27 28  1  0
 27 29  1  0
 27 30  1  0
 16 31  2  0
 31 32  1  0
  8 33  1  0
 33 34  2  0
 33 35  1  0
 35 36  1  0
 36 37  1  0
 36 38  1  0
 36 39  1  0
 35 40  1  0
 40 41  1  0
 41 42  1  0
 41 43  1  0
 40 44  2  0
 44 45  1  0
  7 46  1  0
 46 47  1  0
 46 48  2  0
 48 49  1  0
 48  2  1  0
 44  8  1  0
 31  9  1  0
M  CHG  1  44   1
M  END
>  <score>  (197) 
5.61506

$$$$

     RDKit          3D

 42 44  0  0  0  0  0  0  0  0999 V2000
   16.0965   -8.4441   -1.6208 H   0  0  0  0  0  0  0  0  0  0  0  0
   15.8556   -7.3938   -1.4855 C   0  0  0  0  0  0  0  0  0  0  0  0
   16.7422   -6.5557   -0.8045 C   0  0  0  0  0  0  0  0  0  0  0  0
   17.6736   -6.9511   -0.4099 H   0  0  0  0  0  0  0  0  0  0  0  0
   16.4176   -5.2086   -0.6073 C   0  0  0  0  0  0  0  0  0  0  0  0
   17.0968   -4.5646   -0.0565 H   0  0  0  0  0  0  0  0  0  0  0  0
   15.2009   -4.6774   -1.0674 C   0  0  0  0  0  0  0  0  0  0  0  0
   14.8337   -3.2237   -0.7611 C   0  0  0  0  0  0  0  0  0  0  0  0
   15.3900   -2.2012   -1.7513 C   0  0  0  0  0  0  0  0  0  0  0  0
   15.9309   -2.5935   -2.9909 C   0  0  0  0  0  0  0  0  0  0  0  0
   15.9899   -3.6496   -3.2277 H   0  0  0  0  0  0  0  0  0  0  0  0
   16.4001   -1.6478   -3.9159 C   0  0  0  0  0  0  0  0  0  0  0  0
   16.8301   -1.9589   -4.8638 H   0  0  0  0  0  0  0  0  0  0  0  0
   16.3255   -0.2906   -3.6039 C   0  0  0  0  0  0  0  0  0  0  0  0
   16.6661    0.4744   -4.2962 H   0  0  0  0  0  0  0  0  0  0  0  0
   15.8163    0.1114   -2.3718 C   0  0  0  0  0  0  0  0  0  0  0  0
   15.8011    1.4503   -2.0436 N   0  0  0  0  0  0  0  0  0  0  0  0
   15.6618    1.7210   -1.0824 H   0  0  0  0  0  0  0  0  0  0  0  0
   15.5757    2.4238   -2.9695 C   0  0  0  0  0  0  0  0  0  0  0  0
   15.2113    2.2093   -4.1033 O   0  0  0  0  0  0  0  0  0  0  0  0
   15.5774    3.6991   -2.5290 N   0  0  0  0  0  0  0  0  0  0  0  0
   16.0048    3.8685   -1.6288 H   0  0  0  0  0  0  0  0  0  0  0  0
   15.5386    4.4229   -3.2408 H   0  0  0  0  0  0  0  0  0  0  0  0
   15.3349   -0.8232   -1.4613 C   0  0  0  0  0  0  0  0  0  0  0  0
   14.9101   -0.4539   -0.5317 H   0  0  0  0  0  0  0  0  0  0  0  0
   13.3134   -3.0268   -0.5930 C   0  0  0  0  0  0  0  0  0  0  0  0
   12.4502   -3.1457   -1.4643 O   0  0  0  0  0  0  0  0  0  0  0  0
   13.0396   -2.6755    0.7150 N   0  0  0  0  0  0  0  0  0  0  0  0
   11.7349   -2.3153    1.2756 C   0  0  0  0  0  0  0  0  0  0  0  0
   11.5060   -2.9167    2.1626 H   0  0  0  0  0  0  0  0  0  0  0  0
   11.7205   -1.2581    1.5599 H   0  0  0  0  0  0  0  0  0  0  0  0
   10.9334   -2.4792    0.5475 H   0  0  0  0  0  0  0  0  0  0  0  0
   14.2479   -2.6126    1.3766 C   0  0  0  0  0  0  0  0  0  0  0  0
   14.4175   -2.2868    2.6893 N   0  0  0  0  0  0  0  0  0  0  0  0
   15.3522   -2.3241    3.0923 H   0  0  0  0  0  0  0  0  0  0  0  0
   13.6017   -2.1235    3.2767 H   0  0  0  0  0  0  0  0  0  0  0  0
   15.2531   -2.9019    0.6207 N   0  0  0  0  0  4  0  0  0  0  0  0
   16.2200   -2.9694    0.9501 H   0  0  0  0  0  0  0  0  0  0  0  0
   14.3225   -5.5322   -1.7638 C   0  0  0  0  0  0  0  0  0  0  0  0
   13.3671   -5.1563   -2.1177 H   0  0  0  0  0  0  0  0  0  0  0  0
   14.6495   -6.8812   -1.9723 C   0  0  0  0  0  0  0  0  0  0  0  0
   13.9557   -7.5428   -2.4830 H   0  0  0  0  0  0  0  0  0  0  0  0
  1  2  1  0
  2  3  2  0
  3  4  1  0
  3  5  1  0
  5  6  1  0
  5  7  2  0
  7  8  1  0
  8  9  1  0
  9 10  2  0
 10 11  1  0
 10 12  1  0
 12 13  1  0
 12 14  2  0
 14 15  1  0
 14 16  1  0
 16 17  1  0
 17 18  1  0
 17 19  1  0
 19 20  2  0
 19 21  1  0
 21 22  1  0
 21 23  1  0
 16 24  2  0
 24 25  1  0
  8 26  1  0
 26 27  2  0
 26 28  1  0
 28 29  1  0
 29 30  1  0
 29 31  1  0
 29 32  1  0
 28 33  1  0
 33 34  1  0
 34 35  1  0
 34 36  1  0
 33 37  2  0
 37 38  1  0
  7 39  1  0
 39 40  1  0
 39 41  2  0
 41 42  1  0
 41  2  1  0
 37  8  1  0
 24  9  1  0
M  CHG  1  37   1
M  END
>  <score>  (198) 
5.61429

$$$$

     RDKit          3D

 53 57  0  0  0  0  0  0  0  0999 V2000
   16.0834   -8.4149   -1.6872 H   0  0  0  0  0  0  0  0  0  0  0  0
   15.8563   -7.3642   -1.5296 C   0  0  0  0  0  0  0  0  0  0  0  0
   16.7654   -6.5486   -0.8510 C   0  0  0  0  0  0  0  0  0  0  0  0
   17.7029   -6.9580   -0.4854 H   0  0  0  0  0  0  0  0  0  0  0  0
   16.4646   -5.2017   -0.6253 C   0  0  0  0  0  0  0  0  0  0  0  0
   17.1764   -4.5746   -0.0971 H   0  0  0  0  0  0  0  0  0  0  0  0
   15.2460   -4.6480   -1.0508 C   0  0  0  0  0  0  0  0  0  0  0  0
   14.9190   -3.1916   -0.7186 C   0  0  0  0  0  0  0  0  0  0  0  0
   15.4433   -2.1872   -1.7487 C   0  0  0  0  0  0  0  0  0  0  0  0
   16.0024   -2.6027   -2.9705 C   0  0  0  0  0  0  0  0  0  0  0  0
   16.1205   -3.6642   -3.1723 H   0  0  0  0  0  0  0  0  0  0  0  0
   16.4182   -1.6631   -3.9225 C   0  0  0  0  0  0  0  0  0  0  0  0
   16.8471   -1.9933   -4.8638 H   0  0  0  0  0  0  0  0  0  0  0  0
   16.2869   -0.2956   -3.6648 C   0  0  0  0  0  0  0  0  0  0  0  0
   16.6105    0.4214   -4.4145 H   0  0  0  0  0  0  0  0  0  0  0  0
   15.7184    0.1509   -2.4646 C   0  0  0  0  0  0  0  0  0  0  0  0
   15.5797    1.6354   -2.2137 C   0  0  0  0  0  0  0  0  0  0  0  0
   16.0634    1.8831   -1.2610 H   0  0  0  0  0  0  0  0  0  0  0  0
   16.1093    2.1935   -2.9922 H   0  0  0  0  0  0  0  0  0  0  0  0
   14.1697    2.0146   -2.2143 N   0  0  0  0  0  0  0  0  0  0  0  0
   13.2890    1.7239   -3.2211 C   0  0  0  0  0  0  0  0  0  0  0  0
   13.6422    1.5065   -4.3720 O   0  0  0  0  0  0  0  0  0  0  0  0
   11.9263    1.6871   -2.7158 C   0  0  0  0  0  0  0  0  0  0  0  0
   10.6898    1.4422   -3.3198 C   0  0  0  0  0  0  0  0  0  0  0  0
   10.6273    1.2512   -4.3881 H   0  0  0  0  0  0  0  0  0  0  0  0
    9.5365    1.4283   -2.5281 C   0  0  0  0  0  0  0  0  0  0  0  0
    8.5713    1.2464   -2.9902 H   0  0  0  0  0  0  0  0  0  0  0  0
    9.6286    1.6383   -1.1431 C   0  0  0  0  0  0  0  0  0  0  0  0
    8.7374    1.5994   -0.5259 H   0  0  0  0  0  0  0  0  0  0  0  0
   10.8674    1.9058   -0.5500 C   0  0  0  0  0  0  0  0  0  0  0  0
   10.9288    2.0712    0.5207 H   0  0  0  0  0  0  0  0  0  0  0  0
   12.0125    1.9445   -1.3534 C   0  0  0  0  0  0  0  0  0  0  0  0
   13.4182    2.2057   -1.0836 C   0  0  0  0  0  0  0  0  0  0  0  0
   13.8699    2.7514   -0.0927 O   0  0  0  0  0  0  0  0  0  0  0  0
   15.2973   -0.8024   -1.5194 C   0  0  0  0  0  0  0  0  0  0  0  0
   14.8388   -0.4597   -0.5962 H   0  0  0  0  0  0  0  0  0  0  0  0
   13.4112   -2.9737   -0.4798 C   0  0  0  0  0  0  0  0  0  0  0  0
   12.5090   -3.1149   -1.2981 O   0  0  0  0  0  0  0  0  0  0  0  0
   13.1988   -2.5931    0.8311 N   0  0  0  0  0  0  0  0  0  0  0  0
   11.9220   -2.2838    1.4680 C   0  0  0  0  0  0  0  0  0  0  0  0
   11.9513   -2.5566    2.5284 H   0  0  0  0  0  0  0  0  0  0  0  0
   11.1046   -2.8398    1.0013 H   0  0  0  0  0  0  0  0  0  0  0  0
   11.7092   -1.2133    1.3878 H   0  0  0  0  0  0  0  0  0  0  0  0
   14.4151   -2.6036    1.4616 C   0  0  0  0  0  0  0  0  0  0  0  0
   14.5555   -2.4059    2.8063 N   0  0  0  0  0  0  0  0  0  0  0  0
   15.4940   -2.2443    3.1572 H   0  0  0  0  0  0  0  0  0  0  0  0
   13.7637   -2.0366    3.3247 H   0  0  0  0  0  0  0  0  0  0  0  0
   15.3886   -2.8717    0.6511 N   0  0  0  0  0  4  0  0  0  0  0  0
   16.3329   -3.0798    0.9837 H   0  0  0  0  0  0  0  0  0  0  0  0
   14.3511   -5.4735   -1.7624 C   0  0  0  0  0  0  0  0  0  0  0  0
   13.4084   -5.0786   -2.1310 H   0  0  0  0  0  0  0  0  0  0  0  0
   14.6542   -6.8236   -1.9966 C   0  0  0  0  0  0  0  0  0  0  0  0
   13.9560   -7.4632   -2.5294 H   0  0  0  0  0  0  0  0  0  0  0  0
  1  2  1  0
  2  3  2  0
  3  4  1  0
  3  5  1  0
  5  6  1  0
  5  7  2  0
  7  8  1  0
  8  9  1  0
  9 10  2  0
 10 11  1  0
 10 12  1  0
 12 13  1  0
 12 14  2  0
 14 15  1  0
 14 16  1  0
 16 17  1  0
 17 18  1  0
 17 19  1  0
 17 20  1  0
 20 21  1  0
 21 22  2  0
 21 23  1  0
 23 24  2  0
 24 25  1  0
 24 26  1  0
 26 27  1  0
 26 28  2  0
 28 29  1  0
 28 30  1  0
 30 31  1  0
 30 32  2  0
 32 33  1  0
 33 34  2  0
 16 35  2  0
 35 36  1  0
  8 37  1  0
 37 38  2  0
 37 39  1  0
 39 40  1  0
 40 41  1  0
 40 42  1  0
 40 43  1  0
 39 44  1  0
 44 45  1  0
 45 46  1  0
 45 47  1  0
 44 48  2  0
 48 49  1  0
  7 50  1  0
 50 51  1  0
 50 52  2  0
 52 53  1  0
 52  2  1  0
 48  8  1  0
 35  9  1  0
 33 20  1  0
 32 23  1  0
M  CHG  1  48   1
M  END
>  <score>  (199) 
5.61414

$$$$

     RDKit          3D

 48 51  0  0  0  0  0  0  0  0999 V2000
   10.2038   -9.7395    0.8944 H   0  0  0  0  0  0  0  0  0  0  0  0
   10.9120   -9.3765    0.1551 C   0  0  0  0  0  0  0  0  0  0  0  0
   10.6163   -8.2668   -0.5427 N   0  0  0  0  0  0  0  0  0  0  0  0
   11.5310   -7.7918   -1.4090 C   0  0  0  0  0  0  0  0  0  0  0  0
   11.2939   -6.8732   -1.9416 H   0  0  0  0  0  0  0  0  0  0  0  0
   12.7745   -8.4175   -1.6260 C   0  0  0  0  0  0  0  0  0  0  0  0
   13.8198   -7.8098   -2.5427 C   0  0  0  0  0  0  0  0  0  0  0  0
   13.3635   -7.2058   -3.3206 H   0  0  0  0  0  0  0  0  0  0  0  0
   14.4077   -8.5972   -3.0235 H   0  0  0  0  0  0  0  0  0  0  0  0
   14.7469   -6.9006   -1.8043 C   0  0  0  0  0  0  0  0  0  0  0  0
   15.9741   -7.3797   -1.3406 C   0  0  0  0  0  0  0  0  0  0  0  0
   16.2091   -8.4290   -1.4947 H   0  0  0  0  0  0  0  0  0  0  0  0
   16.8677   -6.5151   -0.7043 C   0  0  0  0  0  0  0  0  0  0  0  0
   17.8230   -6.8928   -0.3515 H   0  0  0  0  0  0  0  0  0  0  0  0
   16.5144   -5.1719   -0.5249 C   0  0  0  0  0  0  0  0  0  0  0  0
   17.1947   -4.4896   -0.0265 H   0  0  0  0  0  0  0  0  0  0  0  0
   15.2744   -4.6852   -0.9718 C   0  0  0  0  0  0  0  0  0  0  0  0
   14.8576   -3.2492   -0.7305 C   0  0  0  0  0  0  0  0  0  0  0  0
   15.3975   -2.2598   -1.7565 C   0  0  0  0  0  0  0  0  0  0  0  0
   15.9346   -2.6707   -2.9910 C   0  0  0  0  0  0  0  0  0  0  0  0
   15.9851   -3.7313   -3.2226 H   0  0  0  0  0  0  0  0  0  0  0  0
   16.4094   -1.7221   -3.9133 C   0  0  0  0  0  0  0  0  0  0  0  0
   16.8321   -2.0349   -4.8651 H   0  0  0  0  0  0  0  0  0  0  0  0
   16.3494   -0.3567   -3.6079 C   0  0  0  0  0  0  0  0  0  0  0  0
   16.7317    0.3777   -4.3117 H   0  0  0  0  0  0  0  0  0  0  0  0
   15.7915    0.0672   -2.3971 C   0  0  0  0  0  0  0  0  0  0  0  0
   15.7333    1.1272   -2.1574 H   0  0  0  0  0  0  0  0  0  0  0  0
   15.3112   -0.8824   -1.4881 C   0  0  0  0  0  0  0  0  0  0  0  0
   14.8743   -0.5510   -0.5502 H   0  0  0  0  0  0  0  0  0  0  0  0
   13.3305   -3.0740   -0.5741 C   0  0  0  0  0  0  0  0  0  0  0  0
   12.4696   -3.1944   -1.4468 O   0  0  0  0  0  0  0  0  0  0  0  0
   13.0466   -2.6943    0.7249 N   0  0  0  0  0  0  0  0  0  0  0  0
   11.7435   -2.3202    1.2805 C   0  0  0  0  0  0  0  0  0  0  0  0
   11.5078   -2.9116    2.1729 H   0  0  0  0  0  0  0  0  0  0  0  0
   10.9379   -2.4807    0.5565 H   0  0  0  0  0  0  0  0  0  0  0  0
   11.7356   -1.2613    1.5604 H   0  0  0  0  0  0  0  0  0  0  0  0
   14.2557   -2.6051    1.3814 C   0  0  0  0  0  0  0  0  0  0  0  0
   14.4320   -2.2562    2.6841 N   0  0  0  0  0  0  0  0  0  0  0  0
   15.3682   -2.3036    3.0797 H   0  0  0  0  0  0  0  0  0  0  0  0
   13.6184   -2.1209    3.2798 H   0  0  0  0  0  0  0  0  0  0  0  0
   15.2672   -2.8908    0.6380 N   0  0  0  0  0  4  0  0  0  0  0  0
   16.2206   -3.0099    0.9892 H   0  0  0  0  0  0  0  0  0  0  0  0
   14.4013   -5.5591   -1.6235 C   0  0  0  0  0  0  0  0  0  0  0  0
   13.4418   -5.2001   -1.9879 H   0  0  0  0  0  0  0  0  0  0  0  0
   13.0458   -9.6105   -0.9450 C   0  0  0  0  0  0  0  0  0  0  0  0
   13.9854  -10.1363   -1.1058 H   0  0  0  0  0  0  0  0  0  0  0  0
   12.1027  -10.0839   -0.0293 C   0  0  0  0  0  0  0  0  0  0  0  0
   12.2835  -10.9760    0.5640 H   0  0  0  0  0  0  0  0  0  0  0  0
  1  2  1  0
  2  3  2  0
  3  4  1  0
  4  5  1  0
  4  6  2  0
  6  7  1  0
  7  8  1  0
  7  9  1  0
  7 10  1  0
 10 11  2  0
 11 12  1  0
 11 13  1  0
 13 14  1  0
 13 15  2  0
 15 16  1  0
 15 17  1  0
 17 18  1  0
 18 19  1  0
 19 20  2  0
 20 21  1  0
 20 22  1  0
 22 23  1  0
 22 24  2  0
 24 25  1  0
 24 26  1  0
 26 27  1  0
 26 28  2  0
 28 29  1  0
 18 30  1  0
 30 31  2  0
 30 32  1  0
 32 33  1  0
 33 34  1  0
 33 35  1  0
 33 36  1  0
 32 37  1  0
 37 38  1  0
 38 39  1  0
 38 40  1  0
 37 41  2  0
 41 42  1  0
 17 43  2  0
 43 44  1  0
  6 45  1  0
 45 46  1  0
 45 47  2  0
 47 48  1  0
 47  2  1  0
 43 10  1  0
 41 18  1  0
 28 19  1  0
M  CHG  1  41   1
M  END
>  <score>  (200) 
5.61391

$$$$

     RDKit          3D

 48 51  0  0  0  0  0  0  0  0999 V2000
   12.5469  -11.1254    0.2787 H   0  0  0  0  0  0  0  0  0  0  0  0
   12.2950  -10.1654   -0.1597 C   0  0  0  0  0  0  0  0  0  0  0  0
   13.1546   -9.6180   -1.0317 N   0  0  0  0  0  0  0  0  0  0  0  0
   12.8502   -8.4272   -1.5726 C   0  0  0  0  0  0  0  0  0  0  0  0
   13.8587   -7.7909   -2.4864 C   0  0  0  0  0  0  0  0  0  0  0  0
   13.3661   -7.1681   -3.2276 H   0  0  0  0  0  0  0  0  0  0  0  0
   14.4075   -8.5740   -3.0169 H   0  0  0  0  0  0  0  0  0  0  0  0
   14.7941   -6.8935   -1.7390 C   0  0  0  0  0  0  0  0  0  0  0  0
   16.0244   -7.3596   -1.2723 C   0  0  0  0  0  0  0  0  0  0  0  0
   16.2899   -8.3998   -1.4053 H   0  0  0  0  0  0  0  0  0  0  0  0
   16.9224   -6.4850   -0.6575 C   0  0  0  0  0  0  0  0  0  0  0  0
   17.8925   -6.8355   -0.3164 H   0  0  0  0  0  0  0  0  0  0  0  0
   16.5796   -5.1419   -0.4913 C   0  0  0  0  0  0  0  0  0  0  0  0
   17.2912   -4.4710   -0.0143 H   0  0  0  0  0  0  0  0  0  0  0  0
   15.3212   -4.6723   -0.9142 C   0  0  0  0  0  0  0  0  0  0  0  0
   14.8869   -3.2405   -0.6930 C   0  0  0  0  0  0  0  0  0  0  0  0
   15.4087   -2.2626   -1.7325 C   0  0  0  0  0  0  0  0  0  0  0  0
   15.9354   -2.6807   -2.9676 C   0  0  0  0  0  0  0  0  0  0  0  0
   15.9870   -3.7373   -3.2175 H   0  0  0  0  0  0  0  0  0  0  0  0
   16.4022   -1.7363   -3.8877 C   0  0  0  0  0  0  0  0  0  0  0  0
   16.8106   -2.0613   -4.8350 H   0  0  0  0  0  0  0  0  0  0  0  0
   16.3487   -0.3716   -3.5975 C   0  0  0  0  0  0  0  0  0  0  0  0
   16.7344    0.3541   -4.3070 H   0  0  0  0  0  0  0  0  0  0  0  0
   15.7953    0.0517   -2.3893 C   0  0  0  0  0  0  0  0  0  0  0  0
   15.7355    1.1084   -2.1563 H   0  0  0  0  0  0  0  0  0  0  0  0
   15.3198   -0.8857   -1.4722 C   0  0  0  0  0  0  0  0  0  0  0  0
   14.8777   -0.5456   -0.5399 H   0  0  0  0  0  0  0  0  0  0  0  0
   13.3615   -3.0832   -0.5361 C   0  0  0  0  0  0  0  0  0  0  0  0
   12.5066   -3.2768   -1.4006 O   0  0  0  0  0  0  0  0  0  0  0  0
   13.0727   -2.6837    0.7519 N   0  0  0  0  0  0  0  0  0  0  0  0
   11.7638   -2.3156    1.2918 C   0  0  0  0  0  0  0  0  0  0  0  0
   11.5356   -2.9061    2.1863 H   0  0  0  0  0  0  0  0  0  0  0  0
   11.7588   -1.2553    1.5672 H   0  0  0  0  0  0  0  0  0  0  0  0
   10.9670   -2.4862    0.5563 H   0  0  0  0  0  0  0  0  0  0  0  0
   14.2747   -2.5710    1.4124 C   0  0  0  0  0  0  0  0  0  0  0  0
   14.4573   -2.2112    2.7112 N   0  0  0  0  0  0  0  0  0  0  0  0
   15.3940   -2.2708    3.1060 H   0  0  0  0  0  0  0  0  0  0  0  0
   13.6450   -2.1136    3.3171 H   0  0  0  0  0  0  0  0  0  0  0  0
   15.2866   -2.8571    0.6689 N   0  0  0  0  0  4  0  0  0  0  0  0
   16.2241   -3.0159    1.0375 H   0  0  0  0  0  0  0  0  0  0  0  0
   14.4440   -5.5570   -1.5457 C   0  0  0  0  0  0  0  0  0  0  0  0
   13.4831   -5.1903   -1.8969 H   0  0  0  0  0  0  0  0  0  0  0  0
   11.6350   -7.7777   -1.2905 C   0  0  0  0  0  0  0  0  0  0  0  0
   11.3992   -6.8340   -1.7637 H   0  0  0  0  0  0  0  0  0  0  0  0
   10.7344   -8.3370   -0.3860 C   0  0  0  0  0  0  0  0  0  0  0  0
    9.7933   -7.8449   -0.1403 H   0  0  0  0  0  0  0  0  0  0  0  0
   11.0931   -9.5471    0.1995 C   0  0  0  0  0  0  0  0  0  0  0  0
   10.4522  -10.0132    0.9372 H   0  0  0  0  0  0  0  0  0  0  0  0
  1  2  1  0
  2  3  2  0
  3  4  1  0
  4  5  1  0
  5  6  1  0
  5  7  1  0
  5  8  1  0
  8  9  2  0
  9 10  1  0
  9 11  1  0
 11 12  1  0
 11 13  2  0
 13 14  1  0
 13 15  1  0
 15 16  1  0
 16 17  1  0
 17 18  2  0
 18 19  1  0
 18 20  1  0
 20 21  1  0
 20 22  2  0
 22 23  1  0
 22 24  1  0
 24 25  1  0
 24 26  2  0
 26 27  1  0
 16 28  1  0
 28 29  2  0
 28 30  1  0
 30 31  1  0
 31 32  1  0
 31 33  1  0
 31 34  1  0
 30 35  1  0
 35 36  1  0
 36 37  1  0
 36 38  1  0
 35 39  2  0
 39 40  1  0
 15 41  2  0
 41 42  1  0
  4 43  2  0
 43 44  1  0
 43 45  1  0
 45 46  1  0
 45 47  2  0
 47 48  1  0
 47  2  1  0
 41  8  1  0
 39 16  1  0
 26 17  1  0
M  CHG  1  39   1
M  END
>  <score>  (201) 
5.61299

$$$$

     RDKit          3D

 46 49  0  0  0  0  0  0  0  0999 V2000
   11.0712  -10.2681    0.8797 H   0  0  0  0  0  0  0  0  0  0  0  0
   11.4668   -9.6199    0.1036 C   0  0  0  0  0  0  0  0  0  0  0  0
   13.0395   -9.8535   -0.6494 S   0  0  0  0  0  0  0  0  0  0  0  0
   12.8223   -8.3900   -1.6055 C   0  0  0  0  0  0  0  0  0  0  0  0
   13.8853   -7.8533   -2.5289 C   0  0  0  0  0  0  0  0  0  0  0  0
   13.4595   -7.2898   -3.3551 H   0  0  0  0  0  0  0  0  0  0  0  0
   14.4488   -8.6896   -2.9506 H   0  0  0  0  0  0  0  0  0  0  0  0
   14.7970   -6.9094   -1.8065 C   0  0  0  0  0  0  0  0  0  0  0  0
   16.0445   -7.3518   -1.3651 C   0  0  0  0  0  0  0  0  0  0  0  0
   16.3304   -8.3877   -1.5153 H   0  0  0  0  0  0  0  0  0  0  0  0
   16.9215   -6.4618   -0.7427 C   0  0  0  0  0  0  0  0  0  0  0  0
   17.8920   -6.8076   -0.4025 H   0  0  0  0  0  0  0  0  0  0  0  0
   16.5529   -5.1258   -0.5530 C   0  0  0  0  0  0  0  0  0  0  0  0
   17.2400   -4.4396   -0.0637 H   0  0  0  0  0  0  0  0  0  0  0  0
   15.2910   -4.6674   -0.9693 C   0  0  0  0  0  0  0  0  0  0  0  0
   14.8602   -3.2284   -0.7192 C   0  0  0  0  0  0  0  0  0  0  0  0
   15.3913   -2.2443   -1.7602 C   0  0  0  0  0  0  0  0  0  0  0  0
   15.9296   -2.6564   -2.9997 C   0  0  0  0  0  0  0  0  0  0  0  0
   15.9857   -3.7127   -3.2508 H   0  0  0  0  0  0  0  0  0  0  0  0
   16.4270   -1.7124   -3.9138 C   0  0  0  0  0  0  0  0  0  0  0  0
   16.8680   -2.0259   -4.8582 H   0  0  0  0  0  0  0  0  0  0  0  0
   16.3768   -0.3488   -3.6033 C   0  0  0  0  0  0  0  0  0  0  0  0
   16.7755    0.3830   -4.2993 H   0  0  0  0  0  0  0  0  0  0  0  0
   15.8185    0.0758   -2.3931 C   0  0  0  0  0  0  0  0  0  0  0  0
   15.7819    1.1333   -2.1429 H   0  0  0  0  0  0  0  0  0  0  0  0
   15.3203   -0.8671   -1.4890 C   0  0  0  0  0  0  0  0  0  0  0  0
   14.8926   -0.5312   -0.5485 H   0  0  0  0  0  0  0  0  0  0  0  0
   13.3294   -3.0775   -0.5840 C   0  0  0  0  0  0  0  0  0  0  0  0
   12.4790   -3.2871   -1.4456 O   0  0  0  0  0  0  0  0  0  0  0  0
   13.0298   -2.6657    0.7042 N   0  0  0  0  0  0  0  0  0  0  0  0
   11.7139   -2.2718    1.2010 C   0  0  0  0  0  0  0  0  0  0  0  0
   11.4583   -2.8227    2.1113 H   0  0  0  0  0  0  0  0  0  0  0  0
   10.9366   -2.4463    0.4516 H   0  0  0  0  0  0  0  0  0  0  0  0
   11.6938   -1.2057    1.4312 H   0  0  0  0  0  0  0  0  0  0  0  0
   14.2146   -2.6047    1.4101 C   0  0  0  0  0  0  0  0  0  0  0  0
   14.3625   -2.3527    2.7484 N   0  0  0  0  0  0  0  0  0  0  0  0
   13.5878   -1.9523    3.2720 H   0  0  0  0  0  0  0  0  0  0  0  0
   15.3091   -2.2573    3.1130 H   0  0  0  0  0  0  0  0  0  0  0  0
   15.2367   -2.8483    0.6635 N   0  0  0  0  0  4  0  0  0  0  0  0
   16.1988   -2.8223    1.0061 H   0  0  0  0  0  0  0  0  0  0  0  0
   14.4267   -5.5709   -1.6083 C   0  0  0  0  0  0  0  0  0  0  0  0
   13.4539   -5.2319   -1.9537 H   0  0  0  0  0  0  0  0  0  0  0  0
   11.6017   -7.8013   -1.3793 C   0  0  0  0  0  0  0  0  0  0  0  0
   11.2733   -6.8881   -1.8656 H   0  0  0  0  0  0  0  0  0  0  0  0
   10.8190   -8.5078   -0.3739 C   0  0  0  0  0  0  0  0  0  0  0  0
    9.8453   -8.1766   -0.0218 H   0  0  0  0  0  0  0  0  0  0  0  0
  1  2  1  0
  2  3  1  0
  3  4  1  0
  4  5  1  0
  5  6  1  0
  5  7  1  0
  5  8  1  0
  8  9  2  0
  9 10  1  0
  9 11  1  0
 11 12  1  0
 11 13  2  0
 13 14  1  0
 13 15  1  0
 15 16  1  0
 16 17  1  0
 17 18  2  0
 18 19  1  0
 18 20  1  0
 20 21  1  0
 20 22  2  0
 22 23  1  0
 22 24  1  0
 24 25  1  0
 24 26  2  0
 26 27  1  0
 16 28  1  0
 28 29  2  0
 28 30  1  0
 30 31  1  0
 31 32  1  0
 31 33  1  0
 31 34  1  0
 30 35  1  0
 35 36  1  0
 36 37  1  0
 36 38  1  0
 35 39  2  0
 39 40  1  0
 15 41  2  0
 41 42  1  0
  4 43  2  0
 43 44  1  0
 43 45  1  0
 45 46  1  0
 45  2  2  0
 41  8  1  0
 39 16  1  0
 26 17  1  0
M  CHG  1  39   1
M  END
>  <score>  (202) 
5.61187

$$$$

     RDKit          3D

 43 46  0  0  0  0  0  0  0  0999 V2000
   12.9911  -11.1228   -3.1178 H   0  0  0  0  0  0  0  0  0  0  0  0
   12.8170  -10.2370   -2.5142 C   0  0  0  0  0  0  0  0  0  0  0  0
   11.8482  -10.1219   -1.5436 C   0  0  0  0  0  0  0  0  0  0  0  0
   10.7161  -11.3838   -1.1235 Cl  0  0  0  0  0  0  0  0  0  0  0  0
   11.9052   -8.5750   -0.6901 S   0  0  0  0  0  0  0  0  0  0  0  0
   13.3327   -8.1318   -1.6243 C   0  0  0  0  0  0  0  0  0  0  0  0
   14.3320   -7.1040   -1.3628 C   0  0  0  0  0  0  0  0  0  0  0  0
   15.6524   -7.5392   -1.1667 C   0  0  0  0  0  0  0  0  0  0  0  0
   15.8850   -8.5971   -1.2386 H   0  0  0  0  0  0  0  0  0  0  0  0
   16.6707   -6.6418   -0.8492 C   0  0  0  0  0  0  0  0  0  0  0  0
   17.6785   -6.9972   -0.6489 H   0  0  0  0  0  0  0  0  0  0  0  0
   16.3802   -5.2825   -0.7577 C   0  0  0  0  0  0  0  0  0  0  0  0
   17.1713   -4.5886   -0.4756 H   0  0  0  0  0  0  0  0  0  0  0  0
   15.0725   -4.8157   -0.9825 C   0  0  0  0  0  0  0  0  0  0  0  0
   14.7473   -3.3527   -0.7629 C   0  0  0  0  0  0  0  0  0  0  0  0
   15.3301   -2.3761   -1.7732 C   0  0  0  0  0  0  0  0  0  0  0  0
   15.8987   -2.7654   -3.0006 C   0  0  0  0  0  0  0  0  0  0  0  0
   15.9585   -3.8158   -3.2662 H   0  0  0  0  0  0  0  0  0  0  0  0
   16.4007   -1.8013   -3.8912 C   0  0  0  0  0  0  0  0  0  0  0  0
   16.8439   -2.0992   -4.8376 H   0  0  0  0  0  0  0  0  0  0  0  0
   16.3336   -0.4409   -3.5672 C   0  0  0  0  0  0  0  0  0  0  0  0
   16.7198    0.3059   -4.2567 H   0  0  0  0  0  0  0  0  0  0  0  0
   15.7682   -0.0438   -2.3523 C   0  0  0  0  0  0  0  0  0  0  0  0
   15.7163    1.0093   -2.0877 H   0  0  0  0  0  0  0  0  0  0  0  0
   15.2674   -1.0058   -1.4727 C   0  0  0  0  0  0  0  0  0  0  0  0
   14.8303   -0.6879   -0.5305 H   0  0  0  0  0  0  0  0  0  0  0  0
   13.2390   -3.0863   -0.5787 C   0  0  0  0  0  0  0  0  0  0  0  0
   12.3493   -3.2102   -1.4179 O   0  0  0  0  0  0  0  0  0  0  0  0
   13.0051   -2.6940    0.7245 N   0  0  0  0  0  0  0  0  0  0  0  0
   11.7236   -2.2944    1.3086 C   0  0  0  0  0  0  0  0  0  0  0  0
   10.9020   -2.4489    0.5991 H   0  0  0  0  0  0  0  0  0  0  0  0
   11.7382   -1.2329    1.5862 H   0  0  0  0  0  0  0  0  0  0  0  0
   11.5141   -2.8894    2.2060 H   0  0  0  0  0  0  0  0  0  0  0  0
   14.2285   -2.6396    1.3526 C   0  0  0  0  0  0  0  0  0  0  0  0
   14.4571   -2.2311    2.6301 N   0  0  0  0  0  0  0  0  0  0  0  0
   13.6587   -2.1061    3.2478 H   0  0  0  0  0  0  0  0  0  0  0  0
   15.3889   -2.3581    3.0196 H   0  0  0  0  0  0  0  0  0  0  0  0
   15.2035   -3.0118    0.5951 N   0  0  0  0  0  4  0  0  0  0  0  0
   16.1768   -3.0749    0.8946 H   0  0  0  0  0  0  0  0  0  0  0  0
   14.0497   -5.7368   -1.2894 C   0  0  0  0  0  0  0  0  0  0  0  0
   13.0353   -5.3835   -1.4460 H   0  0  0  0  0  0  0  0  0  0  0  0
   13.6403   -9.0531   -2.5806 C   0  0  0  0  0  0  0  0  0  0  0  0
   14.4761   -8.9006   -3.2463 H   0  0  0  0  0  0  0  0  0  0  0  0
  1  2  1  0
  2  3  2  0
  3  4  1  0
  3  5  1  0
  5  6  1  0
  6  7  1  0
  7  8  2  0
  8  9  1  0
  8 10  1  0
 10 11  1  0
 10 12  2  0
 12 13  1  0
 12 14  1  0
 14 15  1  0
 15 16  1  0
 16 17  2  0
 17 18  1  0
 17 19  1  0
 19 20  1  0
 19 21  2  0
 21 22  1  0
 21 23  1  0
 23 24  1  0
 23 25  2  0
 25 26  1  0
 15 27  1  0
 27 28  2  0
 27 29  1  0
 29 30  1  0
 30 31  1  0
 30 32  1  0
 30 33  1  0
 29 34  1  0
 34 35  1  0
 35 36  1  0
 35 37  1  0
 34 38  2  0
 38 39  1  0
 14 40  2  0
 40 41  1  0
  6 42  2  0
 42 43  1  0
 42  2  1  0
 40  7  1  0
 38 15  1  0
 25 16  1  0
M  CHG  1  38   1
M  END
>  <score>  (203) 
5.60949

$$$$

     RDKit          3D

 49 52  0  0  0  0  0  0  0  0999 V2000
   16.2203   -8.5426   -1.7680 H   0  0  0  0  0  0  0  0  0  0  0  0
   15.9427   -7.5173   -1.5345 C   0  0  0  0  0  0  0  0  0  0  0  0
   16.8098   -6.7037   -0.7991 C   0  0  0  0  0  0  0  0  0  0  0  0
   17.7628   -7.0936   -0.4549 H   0  0  0  0  0  0  0  0  0  0  0  0
   16.4469   -5.3878   -0.4948 C   0  0  0  0  0  0  0  0  0  0  0  0
   17.1280   -4.7676    0.0797 H   0  0  0  0  0  0  0  0  0  0  0  0
   15.2136   -4.8654   -0.9138 C   0  0  0  0  0  0  0  0  0  0  0  0
   14.8420   -3.4240   -0.5973 C   0  0  0  0  0  0  0  0  0  0  0  0
   15.4234   -2.4463   -1.6146 C   0  0  0  0  0  0  0  0  0  0  0  0
   15.9834   -2.8574   -2.8374 C   0  0  0  0  0  0  0  0  0  0  0  0
   16.0304   -3.9158   -3.0665 H   0  0  0  0  0  0  0  0  0  0  0  0
   16.5036   -1.9221   -3.7446 C   0  0  0  0  0  0  0  0  0  0  0  0
   16.9415   -2.2464   -4.6816 H   0  0  0  0  0  0  0  0  0  0  0  0
   16.4517   -0.5581   -3.4512 C   0  0  0  0  0  0  0  0  0  0  0  0
   16.8329    0.1717   -4.1621 H   0  0  0  0  0  0  0  0  0  0  0  0
   15.8506   -0.1346   -2.2642 C   0  0  0  0  0  0  0  0  0  0  0  0
   15.6593    1.2697   -1.9723 C   0  0  0  0  0  0  0  0  0  0  0  0
   16.5773    2.2333   -2.3853 C   0  0  0  0  0  0  0  0  0  0  0  0
   17.4522    1.9350   -2.9538 H   0  0  0  0  0  0  0  0  0  0  0  0
   16.3675    3.5671   -2.0512 C   0  0  0  0  0  0  0  0  0  0  0  0
   17.1045    4.2973   -2.3729 H   0  0  0  0  0  0  0  0  0  0  0  0
   15.2193    3.9557   -1.3323 C   0  0  0  0  0  0  0  0  0  0  0  0
   14.9476    5.4061   -1.0592 C   0  0  0  0  0  0  0  0  0  0  0  0
   13.6204    5.6583   -1.1569 F   0  0  0  0  0  0  0  0  0  0  0  0
   15.5839    6.1440   -1.9867 F   0  0  0  0  0  0  0  0  0  0  0  0
   15.4052    5.7392    0.1712 F   0  0  0  0  0  0  0  0  0  0  0  0
   14.3175    2.9740   -0.8993 C   0  0  0  0  0  0  0  0  0  0  0  0
   13.4351    3.2261   -0.3152 H   0  0  0  0  0  0  0  0  0  0  0  0
   14.5296    1.6493   -1.2426 C   0  0  0  0  0  0  0  0  0  0  0  0
   13.8027    0.9045   -0.9353 H   0  0  0  0  0  0  0  0  0  0  0  0
   15.3554   -1.0752   -1.3568 C   0  0  0  0  0  0  0  0  0  0  0  0
   14.8942   -0.7138   -0.4413 H   0  0  0  0  0  0  0  0  0  0  0  0
   13.3208   -3.2059   -0.4663 C   0  0  0  0  0  0  0  0  0  0  0  0
   12.4830   -3.2976   -1.3589 O   0  0  0  0  0  0  0  0  0  0  0  0
   13.0071   -2.8283    0.8256 N   0  0  0  0  0  0  0  0  0  0  0  0
   11.7069   -2.3733    1.3237 C   0  0  0  0  0  0  0  0  0  0  0  0
   11.7572   -1.3141    1.6024 H   0  0  0  0  0  0  0  0  0  0  0  0
   10.9209   -2.4874    0.5654 H   0  0  0  0  0  0  0  0  0  0  0  0
   11.4102   -2.9484    2.2093 H   0  0  0  0  0  0  0  0  0  0  0  0
   14.1921   -2.7653    1.5223 C   0  0  0  0  0  0  0  0  0  0  0  0
   14.2876   -2.4044    2.8341 N   0  0  0  0  0  0  0  0  0  0  0  0
   15.2166   -2.1975    3.2005 H   0  0  0  0  0  0  0  0  0  0  0  0
   13.4683   -1.9815    3.2705 H   0  0  0  0  0  0  0  0  0  0  0  0
   15.2142   -3.0847    0.7958 N   0  0  0  0  0  4  0  0  0  0  0  0
   16.1790   -3.0624    1.1349 H   0  0  0  0  0  0  0  0  0  0  0  0
   14.3571   -5.6857   -1.6665 C   0  0  0  0  0  0  0  0  0  0  0  0
   13.4036   -5.3003   -2.0127 H   0  0  0  0  0  0  0  0  0  0  0  0
   14.7183   -7.0029   -1.9742 C   0  0  0  0  0  0  0  0  0  0  0  0
   14.0424   -7.6265   -2.5500 H   0  0  0  0  0  0  0  0  0  0  0  0
  1  2  1  0
  2  3  2  0
  3  4  1  0
  3  5  1  0
  5  6  1  0
  5  7  2  0
  7  8  1  0
  8  9  1  0
  9 10  2  0
 10 11  1  0
 10 12  1  0
 12 13  1  0
 12 14  2  0
 14 15  1  0
 14 16  1  0
 16 17  1  0
 17 18  2  0
 18 19  1  0
 18 20  1  0
 20 21  1  0
 20 22  2  0
 22 23  1  0
 23 24  1  0
 23 25  1  0
 23 26  1  0
 22 27  1  0
 27 28  1  0
 27 29  2  0
 29 30  1  0
 16 31  2  0
 31 32  1  0
  8 33  1  0
 33 34  2  0
 33 35  1  0
 35 36  1  0
 36 37  1  0
 36 38  1  0
 36 39  1  0
 35 40  1  0
 40 41  1  0
 41 42  1  0
 41 43  1  0
 40 44  2  0
 44 45  1  0
  7 46  1  0
 46 47  1  0
 46 48  2  0
 48 49  1  0
 48  2  1  0
 44  8  1  0
 31  9  1  0
 29 17  1  0
M  CHG  1  44   1
M  END
>  <score>  (204) 
5.60707

$$$$

     RDKit          3D

 45 47  0  0  0  0  0  0  0  0999 V2000
   16.1210   -8.4861   -1.6114 H   0  0  0  0  0  0  0  0  0  0  0  0
   15.8541   -7.4404   -1.4724 C   0  0  0  0  0  0  0  0  0  0  0  0
   16.7299   -6.5821   -0.8030 C   0  0  0  0  0  0  0  0  0  0  0  0
   17.6727   -6.9564   -0.4166 H   0  0  0  0  0  0  0  0  0  0  0  0
   16.3915   -5.2385   -0.6097 C   0  0  0  0  0  0  0  0  0  0  0  0
   17.0678   -4.5874   -0.0641 H   0  0  0  0  0  0  0  0  0  0  0  0
   15.1733   -4.7163   -1.0748 C   0  0  0  0  0  0  0  0  0  0  0  0
   14.8152   -3.2524   -0.7856 C   0  0  0  0  0  0  0  0  0  0  0  0
   15.3875   -2.2444   -1.7801 C   0  0  0  0  0  0  0  0  0  0  0  0
   15.9419   -2.6412   -3.0080 C   0  0  0  0  0  0  0  0  0  0  0  0
   16.0018   -3.6952   -3.2574 H   0  0  0  0  0  0  0  0  0  0  0  0
   16.4213   -1.6908   -3.9183 C   0  0  0  0  0  0  0  0  0  0  0  0
   16.8551   -2.0038   -4.8625 H   0  0  0  0  0  0  0  0  0  0  0  0
   16.3435   -0.3266   -3.6207 C   0  0  0  0  0  0  0  0  0  0  0  0
   16.7067    0.4044   -4.3379 H   0  0  0  0  0  0  0  0  0  0  0  0
   15.7862    0.1036   -2.4097 C   0  0  0  0  0  0  0  0  0  0  0  0
   15.6901    1.5930   -2.1120 C   0  0  0  0  0  0  0  0  0  0  0  0
   16.1275    2.1448   -2.9484 H   0  0  0  0  0  0  0  0  0  0  0  0
   14.2479    2.0436   -1.9323 C   0  0  0  0  0  0  0  0  0  0  0  0
   13.8003    1.5555   -1.0630 H   0  0  0  0  0  0  0  0  0  0  0  0
   14.2012    3.1276   -1.7849 H   0  0  0  0  0  0  0  0  0  0  0  0
   13.6676    1.7883   -2.8197 H   0  0  0  0  0  0  0  0  0  0  0  0
   16.4911    1.9721   -0.8751 C   0  0  0  0  0  0  0  0  0  0  0  0
   16.4940    3.0520   -0.6844 H   0  0  0  0  0  0  0  0  0  0  0  0
   17.5148    1.6926   -1.0875 H   0  0  0  0  0  0  0  0  0  0  0  0
   16.1269    1.4565    0.0238 H   0  0  0  0  0  0  0  0  0  0  0  0
   15.3195   -0.8630   -1.5039 C   0  0  0  0  0  0  0  0  0  0  0  0
   14.8938   -0.5282   -0.5647 H   0  0  0  0  0  0  0  0  0  0  0  0
   13.3010   -3.0261   -0.6032 C   0  0  0  0  0  0  0  0  0  0  0  0
   12.4315   -3.0881   -1.4707 O   0  0  0  0  0  0  0  0  0  0  0  0
   13.0247   -2.6752    0.7026 N   0  0  0  0  0  0  0  0  0  0  0  0
   11.7186   -2.3129    1.2637 C   0  0  0  0  0  0  0  0  0  0  0  0
   10.9122   -2.4756    0.5400 H   0  0  0  0  0  0  0  0  0  0  0  0
   11.6954   -1.2594    1.5585 H   0  0  0  0  0  0  0  0  0  0  0  0
   11.5035   -2.9177    2.1487 H   0  0  0  0  0  0  0  0  0  0  0  0
   14.2265   -2.6295    1.3642 C   0  0  0  0  0  0  0  0  0  0  0  0
   14.3957   -2.3310    2.6860 N   0  0  0  0  0  0  0  0  0  0  0  0
   15.3321   -2.3532    3.0903 H   0  0  0  0  0  0  0  0  0  0  0  0
   13.5813   -2.1263    3.2617 H   0  0  0  0  0  0  0  0  0  0  0  0
   15.2214   -2.9069    0.5938 N   0  0  0  0  0  4  0  0  0  0  0  0
   16.1903   -2.9123    0.9075 H   0  0  0  0  0  0  0  0  0  0  0  0
   14.3040   -5.5885   -1.7681 C   0  0  0  0  0  0  0  0  0  0  0  0
   13.3538   -5.2324   -2.1561 H   0  0  0  0  0  0  0  0  0  0  0  0
   14.6432   -6.9394   -1.9616 C   0  0  0  0  0  0  0  0  0  0  0  0
   13.9720   -7.6121   -2.4880 H   0  0  0  0  0  0  0  0  0  0  0  0
  1  2  1  0
  2  3  2  0
  3  4  1  0
  3  5  1  0
  5  6  1  0
  5  7  2  0
  7  8  1  0
  8  9  1  0
  9 10  2  0
 10 11  1  0
 10 12  1  0
 12 13  1  0
 12 14  2  0
 14 15  1  0
 14 16  1  0
 16 17  1  0
 17 18  1  0
 17 19  1  0
 19 20  1  0
 19 21  1  0
 19 22  1  0
 17 23  1  0
 23 24  1  0
 23 25  1  0
 23 26  1  0
 16 27  2  0
 27 28  1  0
  8 29  1  0
 29 30  2  0
 29 31  1  0
 31 32  1  0
 32 33  1  0
 32 34  1  0
 32 35  1  0
 31 36  1  0
 36 37  1  0
 37 38  1  0
 37 39  1  0
 36 40  2  0
 40 41  1  0
  7 42  1  0
 42 43  1  0
 42 44  2  0
 44 45  1  0
 44  2  1  0
 40  8  1  0
 27  9  1  0
M  CHG  1  40   1
M  END
>  <score>  (205) 
5.60701

$$$$

     RDKit          3D

 55 58  0  0  0  0  0  0  0  0999 V2000
   16.0977   -8.3796   -1.7069 H   0  0  0  0  0  0  0  0  0  0  0  0
   15.8743   -7.3346   -1.5168 C   0  0  0  0  0  0  0  0  0  0  0  0
   16.7850   -6.5331   -0.8187 C   0  0  0  0  0  0  0  0  0  0  0  0
   17.7280   -6.9478   -0.4757 H   0  0  0  0  0  0  0  0  0  0  0  0
   16.4817   -5.1929   -0.5535 C   0  0  0  0  0  0  0  0  0  0  0  0
   17.2013   -4.5731   -0.0242 H   0  0  0  0  0  0  0  0  0  0  0  0
   15.2592   -4.6437   -0.9754 C   0  0  0  0  0  0  0  0  0  0  0  0
   14.8863   -3.2022   -0.6644 C   0  0  0  0  0  0  0  0  0  0  0  0
   15.3758   -2.2235   -1.7213 C   0  0  0  0  0  0  0  0  0  0  0  0
   15.9298   -2.6584   -2.9381 C   0  0  0  0  0  0  0  0  0  0  0  0
   16.0195   -3.7197   -3.1380 H   0  0  0  0  0  0  0  0  0  0  0  0
   16.3880   -1.7431   -3.8915 C   0  0  0  0  0  0  0  0  0  0  0  0
   16.8473   -2.0809   -4.8122 H   0  0  0  0  0  0  0  0  0  0  0  0
   16.2593   -0.3769   -3.6618 C   0  0  0  0  0  0  0  0  0  0  0  0
   16.6308    0.3513   -4.3781 H   0  0  0  0  0  0  0  0  0  0  0  0
   15.6615    0.0724   -2.4851 C   0  0  0  0  0  0  0  0  0  0  0  0
   15.6102    1.5413   -2.2192 C   0  0  0  0  0  0  0  0  0  0  0  0
   14.7454    1.7957   -1.5950 H   0  0  0  0  0  0  0  0  0  0  0  0
   15.5297    2.1128   -3.1525 H   0  0  0  0  0  0  0  0  0  0  0  0
   16.9073    1.8806   -1.4894 C   0  0  0  0  0  0  0  0  0  0  0  0
   16.9168    1.3429   -0.5334 H   0  0  0  0  0  0  0  0  0  0  0  0
   17.7733    1.5677   -2.0867 H   0  0  0  0  0  0  0  0  0  0  0  0
   16.9741    3.3769   -1.2433 C   0  0  0  0  0  0  0  0  0  0  0  0
   16.8327    3.9155   -2.1888 H   0  0  0  0  0  0  0  0  0  0  0  0
   17.9435    3.6633   -0.8342 H   0  0  0  0  0  0  0  0  0  0  0  0
   15.9025    3.7285   -0.2687 C   0  0  0  0  0  0  0  0  0  0  0  0
   16.1481    3.6870    1.1097 C   0  0  0  0  0  0  0  0  0  0  0  0
   17.1160    3.3797    1.4930 H   0  0  0  0  0  0  0  0  0  0  0  0
   15.1564    4.1055    1.9892 C   0  0  0  0  0  0  0  0  0  0  0  0
   15.3606    4.1390    3.0508 H   0  0  0  0  0  0  0  0  0  0  0  0
   13.9306    4.5355    1.4878 C   0  0  0  0  0  0  0  0  0  0  0  0
   13.2388    4.9683    2.1838 H   0  0  0  0  0  0  0  0  0  0  0  0
   13.6478    4.4657    0.1212 C   0  0  0  0  0  0  0  0  0  0  0  0
   12.6977    4.7524   -0.3081 H   0  0  0  0  0  0  0  0  0  0  0  0
   14.6430    4.0786   -0.7553 C   0  0  0  0  0  0  0  0  0  0  0  0
   14.4433    4.1096   -1.8200 H   0  0  0  0  0  0  0  0  0  0  0  0
   15.2362   -0.8420   -1.5127 C   0  0  0  0  0  0  0  0  0  0  0  0
   14.8091   -0.4671   -0.5838 H   0  0  0  0  0  0  0  0  0  0  0  0
   13.3668   -3.0321   -0.4768 C   0  0  0  0  0  0  0  0  0  0  0  0
   12.4782   -3.2591   -1.2954 O   0  0  0  0  0  0  0  0  0  0  0  0
   13.1112   -2.5925    0.8052 N   0  0  0  0  0  0  0  0  0  0  0  0
   11.7939   -2.2732    1.3523 C   0  0  0  0  0  0  0  0  0  0  0  0
   11.0127   -2.4751    0.6091 H   0  0  0  0  0  0  0  0  0  0  0  0
   11.5836   -2.8816    2.2401 H   0  0  0  0  0  0  0  0  0  0  0  0
   11.7381   -1.2125    1.6244 H   0  0  0  0  0  0  0  0  0  0  0  0
   14.3204   -2.5022    1.4586 C   0  0  0  0  0  0  0  0  0  0  0  0
   14.4986   -2.1527    2.7631 N   0  0  0  0  0  0  0  0  0  0  0  0
   15.4336   -2.2267    3.1611 H   0  0  0  0  0  0  0  0  0  0  0  0
   13.6877   -2.0783    3.3775 H   0  0  0  0  0  0  0  0  0  0  0  0
   15.3215   -2.8168    0.6969 N   0  0  0  0  0  4  0  0  0  0  0  0
   16.2766   -2.9201    1.0436 H   0  0  0  0  0  0  0  0  0  0  0  0
   14.3753   -5.4473   -1.7141 C   0  0  0  0  0  0  0  0  0  0  0  0
   13.4429   -5.0323   -2.0851 H   0  0  0  0  0  0  0  0  0  0  0  0
   14.6724   -6.7858   -1.9732 C   0  0  0  0  0  0  0  0  0  0  0  0
   13.9622   -7.3910   -2.5274 H   0  0  0  0  0  0  0  0  0  0  0  0
  1  2  1  0
  2  3  2  0
  3  4  1  0
  3  5  1  0
  5  6  1  0
  5  7  2  0
  7  8  1  0
  8  9  1  0
  9 10  2  0
 10 11  1  0
 10 12  1  0
 12 13  1  0
 12 14  2  0
 14 15  1  0
 14 16  1  0
 16 17  1  0
 17 18  1  0
 17 19  1  0
 17 20  1  0
 20 21  1  0
 20 22  1  0
 20 23  1  0
 23 24  1  0
 23 25  1  0
 23 26  1  0
 26 27  2  0
 27 28  1  0
 27 29  1  0
 29 30  1  0
 29 31  2  0
 31 32  1  0
 31 33  1  0
 33 34  1  0
 33 35  2  0
 35 36  1  0
 16 37  2  0
 37 38  1  0
  8 39  1  0
 39 40  2  0
 39 41  1  0
 41 42  1  0
 42 43  1  0
 42 44  1  0
 42 45  1  0
 41 46  1  0
 46 47  1  0
 47 48  1  0
 47 49  1  0
 46 50  2  0
 50 51  1  0
  7 52  1  0
 52 53  1  0
 52 54  2  0
 54 55  1  0
 54  2  1  0
 50  8  1  0
 37  9  1  0
 35 26  1  0
M  CHG  1  50   1
M  END
>  <score>  (206) 
5.60245

$$$$

     RDKit          3D

 47 49  0  0  0  0  0  0  0  0999 V2000
   16.0965   -8.4337   -1.6356 H   0  0  0  0  0  0  0  0  0  0  0  0
   15.8561   -7.3857   -1.4854 C   0  0  0  0  0  0  0  0  0  0  0  0
   16.7482   -6.5535   -0.8028 C   0  0  0  0  0  0  0  0  0  0  0  0
   17.6837   -6.9487   -0.4184 H   0  0  0  0  0  0  0  0  0  0  0  0
   16.4310   -5.2083   -0.5972 C   0  0  0  0  0  0  0  0  0  0  0  0
   17.1228   -4.5705   -0.0537 H   0  0  0  0  0  0  0  0  0  0  0  0
   15.2132   -4.6768   -1.0520 C   0  0  0  0  0  0  0  0  0  0  0  0
   14.8475   -3.2285   -0.7472 C   0  0  0  0  0  0  0  0  0  0  0  0
   15.3869   -2.2114   -1.7490 C   0  0  0  0  0  0  0  0  0  0  0  0
   15.9460   -2.5945   -2.9841 C   0  0  0  0  0  0  0  0  0  0  0  0
   16.0142   -3.6478   -3.2355 H   0  0  0  0  0  0  0  0  0  0  0  0
   16.4168   -1.6322   -3.8878 C   0  0  0  0  0  0  0  0  0  0  0  0
   16.8590   -1.9408   -4.8338 H   0  0  0  0  0  0  0  0  0  0  0  0
   16.3053   -0.2705   -3.5797 C   0  0  0  0  0  0  0  0  0  0  0  0
   16.6658    0.4907   -4.2582 H   0  0  0  0  0  0  0  0  0  0  0  0
   15.7039    0.1326   -2.3877 C   0  0  0  0  0  0  0  0  0  0  0  0
   15.5056    1.4698   -2.0630 N   0  0  0  0  0  0  0  0  0  0  0  0
   15.2267    1.6357   -1.1034 H   0  0  0  0  0  0  0  0  0  0  0  0
   16.1808    2.5854   -2.7217 C   0  0  0  0  0  0  0  0  0  0  0  0
   16.1621    2.4412   -3.8089 H   0  0  0  0  0  0  0  0  0  0  0  0
   15.4398    3.8758   -2.3808 C   0  0  0  0  0  0  0  0  0  0  0  0
   14.3689    3.7663   -2.5731 H   0  0  0  0  0  0  0  0  0  0  0  0
   15.5747    4.1279   -1.3265 H   0  0  0  0  0  0  0  0  0  0  0  0
   15.8210    4.7120   -2.9743 H   0  0  0  0  0  0  0  0  0  0  0  0
   17.6054    2.6435   -2.1730 C   0  0  0  0  0  0  0  0  0  0  0  0
   18.1494    1.7436   -2.4781 H   0  0  0  0  0  0  0  0  0  0  0  0
   17.6078    2.6788   -1.0775 H   0  0  0  0  0  0  0  0  0  0  0  0
   18.1103    3.5441   -2.5422 H   0  0  0  0  0  0  0  0  0  0  0  0
   15.2662   -0.8339   -1.4837 C   0  0  0  0  0  0  0  0  0  0  0  0
   14.8162   -0.4957   -0.5548 H   0  0  0  0  0  0  0  0  0  0  0  0
   13.3295   -3.0228   -0.5815 C   0  0  0  0  0  0  0  0  0  0  0  0
   12.4701   -3.1514   -1.4523 O   0  0  0  0  0  0  0  0  0  0  0  0
   13.0515   -2.6643    0.7216 N   0  0  0  0  0  0  0  0  0  0  0  0
   11.7444   -2.3097    1.2779 C   0  0  0  0  0  0  0  0  0  0  0  0
   11.7277   -1.2520    1.5630 H   0  0  0  0  0  0  0  0  0  0  0  0
   10.9462   -2.4799    0.5457 H   0  0  0  0  0  0  0  0  0  0  0  0
   11.5246   -2.9139    2.1655 H   0  0  0  0  0  0  0  0  0  0  0  0
   14.2544   -2.6050    1.3900 C   0  0  0  0  0  0  0  0  0  0  0  0
   14.4291   -2.2777    2.6986 N   0  0  0  0  0  0  0  0  0  0  0  0
   13.6162   -2.1127    3.2903 H   0  0  0  0  0  0  0  0  0  0  0  0
   15.3655   -2.3088    3.0998 H   0  0  0  0  0  0  0  0  0  0  0  0
   15.2605   -2.9034    0.6351 N   0  0  0  0  0  4  0  0  0  0  0  0
   16.2196   -2.9874    0.9751 H   0  0  0  0  0  0  0  0  0  0  0  0
   14.3295   -5.5200   -1.7507 C   0  0  0  0  0  0  0  0  0  0  0  0
   13.3806   -5.1323   -2.1112 H   0  0  0  0  0  0  0  0  0  0  0  0
   14.6489   -6.8664   -1.9648 C   0  0  0  0  0  0  0  0  0  0  0  0
   13.9525   -7.5109   -2.4924 H   0  0  0  0  0  0  0  0  0  0  0  0
  1  2  1  0
  2  3  2  0
  3  4  1  0
  3  5  1  0
  5  6  1  0
  5  7  2  0
  7  8  1  0
  8  9  1  0
  9 10  2  0
 10 11  1  0
 10 12  1  0
 12 13  1  0
 12 14  2  0
 14 15  1  0
 14 16  1  0
 16 17  1  0
 17 18  1  0
 17 19  1  0
 19 20  1  0
 19 21  1  0
 21 22  1  0
 21 23  1  0
 21 24  1  0
 19 25  1  0
 25 26  1  0
 25 27  1  0
 25 28  1  0
 16 29  2  0
 29 30  1  0
  8 31  1  0
 31 32  2  0
 31 33  1  0
 33 34  1  0
 34 35  1  0
 34 36  1  0
 34 37  1  0
 33 38  1  0
 38 39  1  0
 39 40  1  0
 39 41  1  0
 38 42  2  0
 42 43  1  0
  7 44  1  0
 44 45  1  0
 44 46  2  0
 46 47  1  0
 46  2  1  0
 42  8  1  0
 29  9  1  0
M  CHG  1  42   1
M  END
>  <score>  (207) 
5.60245

$$$$

     RDKit          3D

 49 52  0  0  0  0  0  0  0  0999 V2000
   10.2034   -9.7965    0.9649 H   0  0  0  0  0  0  0  0  0  0  0  0
   10.8987   -9.4151    0.2227 C   0  0  0  0  0  0  0  0  0  0  0  0
   10.6030   -8.2534   -0.4974 C   0  0  0  0  0  0  0  0  0  0  0  0
    9.6628   -7.7402   -0.3106 H   0  0  0  0  0  0  0  0  0  0  0  0
   11.5294   -7.7473   -1.4243 C   0  0  0  0  0  0  0  0  0  0  0  0
   11.3015   -6.8293   -1.9566 H   0  0  0  0  0  0  0  0  0  0  0  0
   12.7603   -8.3935   -1.6331 C   0  0  0  0  0  0  0  0  0  0  0  0
   13.8203   -7.8079   -2.5462 C   0  0  0  0  0  0  0  0  0  0  0  0
   13.3725   -7.2191   -3.3399 H   0  0  0  0  0  0  0  0  0  0  0  0
   14.4015   -8.6079   -3.0114 H   0  0  0  0  0  0  0  0  0  0  0  0
   14.7547   -6.8984   -1.8090 C   0  0  0  0  0  0  0  0  0  0  0  0
   15.9828   -7.3763   -1.3423 C   0  0  0  0  0  0  0  0  0  0  0  0
   16.2213   -8.4250   -1.4917 H   0  0  0  0  0  0  0  0  0  0  0  0
   16.8747   -6.5127   -0.7011 C   0  0  0  0  0  0  0  0  0  0  0  0
   17.8298   -6.8892   -0.3458 H   0  0  0  0  0  0  0  0  0  0  0  0
   16.5200   -5.1704   -0.5195 C   0  0  0  0  0  0  0  0  0  0  0  0
   17.2046   -4.4897   -0.0238 H   0  0  0  0  0  0  0  0  0  0  0  0
   15.2790   -4.6859   -0.9678 C   0  0  0  0  0  0  0  0  0  0  0  0
   14.8588   -3.2497   -0.7280 C   0  0  0  0  0  0  0  0  0  0  0  0
   15.3982   -2.2607   -1.7559 C   0  0  0  0  0  0  0  0  0  0  0  0
   15.9340   -2.6733   -2.9906 C   0  0  0  0  0  0  0  0  0  0  0  0
   15.9858   -3.7345   -3.2247 H   0  0  0  0  0  0  0  0  0  0  0  0
   16.4085   -1.7242   -3.9125 C   0  0  0  0  0  0  0  0  0  0  0  0
   16.8313   -2.0377   -4.8640 H   0  0  0  0  0  0  0  0  0  0  0  0
   16.3491   -0.3570   -3.6055 C   0  0  0  0  0  0  0  0  0  0  0  0
   16.7316    0.3751   -4.3109 H   0  0  0  0  0  0  0  0  0  0  0  0
   15.7914    0.0705   -2.3957 C   0  0  0  0  0  0  0  0  0  0  0  0
   15.7333    1.1327   -2.1560 H   0  0  0  0  0  0  0  0  0  0  0  0
   15.3111   -0.8817   -1.4881 C   0  0  0  0  0  0  0  0  0  0  0  0
   14.8746   -0.5504   -0.5503 H   0  0  0  0  0  0  0  0  0  0  0  0
   13.3298   -3.0756   -0.5747 C   0  0  0  0  0  0  0  0  0  0  0  0
   12.4692   -3.1988   -1.4448 O   0  0  0  0  0  0  0  0  0  0  0  0
   13.0493   -2.6933    0.7248 N   0  0  0  0  0  0  0  0  0  0  0  0
   11.7454   -2.3197    1.2814 C   0  0  0  0  0  0  0  0  0  0  0  0
   11.7380   -1.2612    1.5610 H   0  0  0  0  0  0  0  0  0  0  0  0
   11.5084   -2.9100    2.1741 H   0  0  0  0  0  0  0  0  0  0  0  0
   10.9415   -2.4807    0.5586 H   0  0  0  0  0  0  0  0  0  0  0  0
   14.2554   -2.6029    1.3849 C   0  0  0  0  0  0  0  0  0  0  0  0
   14.4328   -2.2533    2.6841 N   0  0  0  0  0  0  0  0  0  0  0  0
   13.6203   -2.1207    3.2839 H   0  0  0  0  0  0  0  0  0  0  0  0
   15.3697   -2.3028    3.0822 H   0  0  0  0  0  0  0  0  0  0  0  0
   15.2698   -2.8916    0.6386 N   0  0  0  0  0  4  0  0  0  0  0  0
   16.2211   -3.0114    0.9910 H   0  0  0  0  0  0  0  0  0  0  0  0
   14.4078   -5.5583   -1.6244 C   0  0  0  0  0  0  0  0  0  0  0  0
   13.4473   -5.1996   -1.9876 H   0  0  0  0  0  0  0  0  0  0  0  0
   13.0152   -9.5878   -0.9413 C   0  0  0  0  0  0  0  0  0  0  0  0
   13.9530  -10.1059   -1.1049 H   0  0  0  0  0  0  0  0  0  0  0  0
   12.0969  -10.0927   -0.0115 C   0  0  0  0  0  0  0  0  0  0  0  0
   12.3246  -10.9966    0.5473 H   0  0  0  0  0  0  0  0  0  0  0  0
  1  2  1  0
  2  3  2  0
  3  4  1  0
  3  5  1  0
  5  6  1  0
  5  7  2  0
  7  8  1  0
  8  9  1  0
  8 10  1  0
  8 11  1  0
 11 12  2  0
 12 13  1  0
 12 14  1  0
 14 15  1  0
 14 16  2  0
 16 17  1  0
 16 18  1  0
 18 19  1  0
 19 20  1  0
 20 21  2  0
 21 22  1  0
 21 23  1  0
 23 24  1  0
 23 25  2  0
 25 26  1  0
 25 27  1  0
 27 28  1  0
 27 29  2  0
 29 30  1  0
 19 31  1  0
 31 32  2  0
 31 33  1  0
 33 34  1  0
 34 35  1  0
 34 36  1  0
 34 37  1  0
 33 38  1  0
 38 39  1  0
 39 40  1  0
 39 41  1  0
 38 42  2  0
 42 43  1  0
 18 44  2  0
 44 45  1  0
  7 46  1  0
 46 47  1  0
 46 48  2  0
 48 49  1  0
 48  2  1  0
 44 11  1  0
 42 19  1  0
 29 20  1  0
M  CHG  1  42   1
M  END
>  <score>  (208) 
5.60176

$$$$

     RDKit          3D

 47 50  0  0  0  0  0  0  0  0999 V2000
   16.0962   -8.4398   -1.6309 H   0  0  0  0  0  0  0  0  0  0  0  0
   15.8556   -7.3904   -1.4870 C   0  0  0  0  0  0  0  0  0  0  0  0
   16.7459   -6.5567   -0.8033 C   0  0  0  0  0  0  0  0  0  0  0  0
   17.6793   -6.9519   -0.4129 H   0  0  0  0  0  0  0  0  0  0  0  0
   16.4256   -5.2109   -0.5982 C   0  0  0  0  0  0  0  0  0  0  0  0
   17.1089   -4.5676   -0.0512 H   0  0  0  0  0  0  0  0  0  0  0  0
   15.2088   -4.6807   -1.0553 C   0  0  0  0  0  0  0  0  0  0  0  0
   14.8398   -3.2320   -0.7569 C   0  0  0  0  0  0  0  0  0  0  0  0
   15.3806   -2.2263   -1.7684 C   0  0  0  0  0  0  0  0  0  0  0  0
   15.9298   -2.6415   -2.9910 C   0  0  0  0  0  0  0  0  0  0  0  0
   15.9948   -3.7009   -3.2161 H   0  0  0  0  0  0  0  0  0  0  0  0
   16.4057   -1.7093   -3.9178 C   0  0  0  0  0  0  0  0  0  0  0  0
   16.8533   -2.0416   -4.8485 H   0  0  0  0  0  0  0  0  0  0  0  0
   16.3059   -0.3422   -3.6516 C   0  0  0  0  0  0  0  0  0  0  0  0
   16.7093    0.3705   -4.3671 H   0  0  0  0  0  0  0  0  0  0  0  0
   15.6960    0.1101   -2.4700 C   0  0  0  0  0  0  0  0  0  0  0  0
   15.5953    1.6091   -2.2074 C   0  0  1  0  0  0  0  0  0  0  0  0
   15.7186    2.1456   -3.1527 H   0  0  0  0  0  0  0  0  0  0  0  0
   14.3613    2.0247   -1.5876 O   0  0  0  0  0  0  0  0  0  0  0  0
   14.6737    2.8447   -0.4483 C   0  0  0  0  0  0  0  0  0  0  0  0
   14.8042    3.8937   -0.7394 H   0  0  0  0  0  0  0  0  0  0  0  0
   13.9031    2.8089    0.3219 H   0  0  0  0  0  0  0  0  0  0  0  0
   15.9779    2.2741    0.0604 C   0  0  0  0  0  0  0  0  0  0  0  0
   15.7995    1.3318    0.5886 H   0  0  0  0  0  0  0  0  0  0  0  0
   16.5153    2.9605    0.7212 H   0  0  0  0  0  0  0  0  0  0  0  0
   16.6959    2.0236   -1.2456 C   0  0  0  0  0  0  0  0  0  0  0  0
   17.1989    2.9307   -1.5943 H   0  0  0  0  0  0  0  0  0  0  0  0
   17.4191    1.2274   -1.1680 H   0  0  0  0  0  0  0  0  0  0  0  0
   15.2719   -0.8422   -1.5228 C   0  0  0  0  0  0  0  0  0  0  0  0
   14.8581   -0.4960   -0.5792 H   0  0  0  0  0  0  0  0  0  0  0  0
   13.3196   -3.0401   -0.5854 C   0  0  0  0  0  0  0  0  0  0  0  0
   12.4531   -3.1781   -1.4470 O   0  0  0  0  0  0  0  0  0  0  0  0
   13.0445   -2.6834    0.7195 N   0  0  0  0  0  0  0  0  0  0  0  0
   11.7408   -2.3154    1.2784 C   0  0  0  0  0  0  0  0  0  0  0  0
   10.9369   -2.4778    0.5524 H   0  0  0  0  0  0  0  0  0  0  0  0
   11.5110   -2.9114    2.1684 H   0  0  0  0  0  0  0  0  0  0  0  0
   11.7307   -1.2580    1.5621 H   0  0  0  0  0  0  0  0  0  0  0  0
   14.2539   -2.6066    1.3769 C   0  0  0  0  0  0  0  0  0  0  0  0
   14.4279   -2.2652    2.6823 N   0  0  0  0  0  0  0  0  0  0  0  0
   15.3645   -2.3134    3.0842 H   0  0  0  0  0  0  0  0  0  0  0  0
   13.6140   -2.1221    3.2760 H   0  0  0  0  0  0  0  0  0  0  0  0
   15.2557   -2.8957    0.6180 N   0  0  0  0  0  4  0  0  0  0  0  0
   16.2162   -2.9829    0.9570 H   0  0  0  0  0  0  0  0  0  0  0  0
   14.3266   -5.5258   -1.7522 C   0  0  0  0  0  0  0  0  0  0  0  0
   13.3741   -5.1420   -2.1072 H   0  0  0  0  0  0  0  0  0  0  0  0
   14.6486   -6.8722   -1.9680 C   0  0  0  0  0  0  0  0  0  0  0  0
   13.9540   -7.5237   -2.4898 H   0  0  0  0  0  0  0  0  0  0  0  0
  1  2  1  0
  2  3  2  0
  3  4  1  0
  3  5  1  0
  5  6  1  0
  5  7  2  0
  7  8  1  0
  8  9  1  0
  9 10  2  0
 10 11  1  0
 10 12  1  0
 12 13  1  0
 12 14  2  0
 14 15  1  0
 14 16  1  0
 16 17  1  0
 17 18  1  6
 17 19  1  0
 19 20  1  0
 20 21  1  0
 20 22  1  0
 20 23  1  0
 23 24  1  0
 23 25  1  0
 23 26  1  0
 26 27  1  0
 26 28  1  0
 16 29  2  0
 29 30  1  0
  8 31  1  0
 31 32  2  0
 31 33  1  0
 33 34  1  0
 34 35  1  0
 34 36  1  0
 34 37  1  0
 33 38  1  0
 38 39  1  0
 39 40  1  0
 39 41  1  0
 38 42  2  0
 42 43  1  0
  7 44  1  0
 44 45  1  0
 44 46  2  0
 46 47  1  0
 46  2  1  0
 42  8  1  0
 29  9  1  0
 26 17  1  0
M  CHG  1  42   1
M  END
>  <score>  (209) 
5.60089

$$$$

     RDKit          3D

 48 51  0  0  0  0  0  0  0  0999 V2000
   13.1336  -10.2825   -3.9456 H   0  0  0  0  0  0  0  0  0  0  0  0
   12.8905   -9.5991   -3.1419 C   0  0  0  0  0  0  0  0  0  0  0  0
   13.8330   -8.7541   -2.7155 N   0  0  0  0  0  0  0  0  0  0  0  0
   13.5682   -7.9350   -1.6893 C   0  0  0  0  0  0  0  0  0  0  0  0
   14.6121   -6.9771   -1.3046 C   0  0  0  0  0  0  0  0  0  0  0  0
   15.9320   -7.4003   -1.0796 C   0  0  0  0  0  0  0  0  0  0  0  0
   16.1814   -8.4561   -1.1521 H   0  0  0  0  0  0  0  0  0  0  0  0
   16.9242   -6.4707   -0.7585 C   0  0  0  0  0  0  0  0  0  0  0  0
   17.9410   -6.8047   -0.5852 H   0  0  0  0  0  0  0  0  0  0  0  0
   16.6084   -5.1119   -0.6627 C   0  0  0  0  0  0  0  0  0  0  0  0
   17.3887   -4.3998   -0.4175 H   0  0  0  0  0  0  0  0  0  0  0  0
   15.2850   -4.6778   -0.8389 C   0  0  0  0  0  0  0  0  0  0  0  0
   14.8922   -3.2288   -0.6338 C   0  0  0  0  0  0  0  0  0  0  0  0
   15.4268   -2.2736   -1.6872 C   0  0  0  0  0  0  0  0  0  0  0  0
   15.9424   -2.7121   -2.9208 C   0  0  0  0  0  0  0  0  0  0  0  0
   15.9830   -3.7730   -3.1531 H   0  0  0  0  0  0  0  0  0  0  0  0
   16.4060   -1.7833   -3.8625 C   0  0  0  0  0  0  0  0  0  0  0  0
   16.8108   -2.1145   -4.8124 H   0  0  0  0  0  0  0  0  0  0  0  0
   16.3485   -0.4136   -3.5876 C   0  0  0  0  0  0  0  0  0  0  0  0
   16.7158    0.3085   -4.3106 H   0  0  0  0  0  0  0  0  0  0  0  0
   15.8110    0.0305   -2.3777 C   0  0  0  0  0  0  0  0  0  0  0  0
   15.7479    1.0912   -2.1551 H   0  0  0  0  0  0  0  0  0  0  0  0
   15.3482   -0.8942   -1.4407 C   0  0  0  0  0  0  0  0  0  0  0  0
   14.9208   -0.5463   -0.5035 H   0  0  0  0  0  0  0  0  0  0  0  0
   13.3674   -3.0381   -0.4790 C   0  0  0  0  0  0  0  0  0  0  0  0
   12.5039   -3.2379   -1.3302 O   0  0  0  0  0  0  0  0  0  0  0  0
   13.0877   -2.6080    0.8031 N   0  0  0  0  0  0  0  0  0  0  0  0
   11.7704   -2.2798    1.3501 C   0  0  0  0  0  0  0  0  0  0  0  0
   11.5581   -2.8813    2.2428 H   0  0  0  0  0  0  0  0  0  0  0  0
   10.9789   -2.4745    0.6154 H   0  0  0  0  0  0  0  0  0  0  0  0
   11.7270   -1.2192    1.6246 H   0  0  0  0  0  0  0  0  0  0  0  0
   14.2933   -2.5061    1.4606 C   0  0  0  0  0  0  0  0  0  0  0  0
   14.4733   -2.1311    2.7550 N   0  0  0  0  0  0  0  0  0  0  0  0
   13.6585   -2.0989    3.3637 H   0  0  0  0  0  0  0  0  0  0  0  0
   15.3950   -2.2840    3.1610 H   0  0  0  0  0  0  0  0  0  0  0  0
   15.3025   -2.8261    0.7223 N   0  0  0  0  0  4  0  0  0  0  0  0
   16.2587   -2.9020    1.0716 H   0  0  0  0  0  0  0  0  0  0  0  0
   14.3025   -5.6165   -1.1719 C   0  0  0  0  0  0  0  0  0  0  0  0
   13.2849   -5.2713   -1.3439 H   0  0  0  0  0  0  0  0  0  0  0  0
   12.3486   -8.0042   -1.0055 C   0  0  0  0  0  0  0  0  0  0  0  0
   12.2258   -7.2405    0.2806 C   0  0  0  0  0  0  0  0  0  0  0  0
   11.2787   -7.7949    1.0768 F   0  0  0  0  0  0  0  0  0  0  0  0
   13.4124   -7.2760    0.9438 F   0  0  0  0  0  0  0  0  0  0  0  0
   11.8776   -5.9523    0.0469 F   0  0  0  0  0  0  0  0  0  0  0  0
   11.3367   -8.8591   -1.4617 C   0  0  0  0  0  0  0  0  0  0  0  0
   10.3852   -8.9434   -0.9381 H   0  0  0  0  0  0  0  0  0  0  0  0
   11.6162   -9.6488   -2.5691 C   0  0  0  0  0  0  0  0  0  0  0  0
   10.8760  -10.3451   -2.9395 H   0  0  0  0  0  0  0  0  0  0  0  0
  1  2  1  0
  2  3  2  0
  3  4  1  0
  4  5  1  0
  5  6  2  0
  6  7  1  0
  6  8  1  0
  8  9  1  0
  8 10  2  0
 10 11  1  0
 10 12  1  0
 12 13  1  0
 13 14  1  0
 14 15  2  0
 15 16  1  0
 15 17  1  0
 17 18  1  0
 17 19  2  0
 19 20  1  0
 19 21  1  0
 21 22  1  0
 21 23  2  0
 23 24  1  0
 13 25  1  0
 25 26  2  0
 25 27  1  0
 27 28  1  0
 28 29  1  0
 28 30  1  0
 28 31  1  0
 27 32  1  0
 32 33  1  0
 33 34  1  0
 33 35  1  0
 32 36  2  0
 36 37  1  0
 12 38  2  0
 38 39  1  0
  4 40  2  0
 40 41  1  0
 41 42  1  0
 41 43  1  0
 41 44  1  0
 40 45  1  0
 45 46  1  0
 45 47  2  0
 47 48  1  0
 47  2  1  0
 38  5  1  0
 36 13  1  0
 23 14  1  0
M  CHG  1  36   1
M  END
>  <score>  (210) 
5.59851

$$$$

     RDKit          3D

 48 50  0  0  0  0  0  0  0  0999 V2000
   16.1010   -8.4639   -1.6154 H   0  0  0  0  0  0  0  0  0  0  0  0
   15.8595   -7.4136   -1.4844 C   0  0  0  0  0  0  0  0  0  0  0  0
   16.7416   -6.5663   -0.8065 C   0  0  0  0  0  0  0  0  0  0  0  0
   17.6720   -6.9600   -0.4092 H   0  0  0  0  0  0  0  0  0  0  0  0
   16.4096   -5.2214   -0.6078 C   0  0  0  0  0  0  0  0  0  0  0  0
   17.0762   -4.5683   -0.0523 H   0  0  0  0  0  0  0  0  0  0  0  0
   15.1935   -4.7000   -1.0743 C   0  0  0  0  0  0  0  0  0  0  0  0
   14.8290   -3.2466   -0.7698 C   0  0  0  0  0  0  0  0  0  0  0  0
   15.3887   -2.2399   -1.7745 C   0  0  0  0  0  0  0  0  0  0  0  0
   15.9438   -2.6435   -3.0004 C   0  0  0  0  0  0  0  0  0  0  0  0
   15.9954   -3.7042   -3.2283 H   0  0  0  0  0  0  0  0  0  0  0  0
   16.4183   -1.6948   -3.9176 C   0  0  0  0  0  0  0  0  0  0  0  0
   16.8490   -2.0070   -4.8622 H   0  0  0  0  0  0  0  0  0  0  0  0
   16.3327   -0.3271   -3.6228 C   0  0  0  0  0  0  0  0  0  0  0  0
   16.7084    0.4088   -4.3255 H   0  0  0  0  0  0  0  0  0  0  0  0
   15.7702    0.1019   -2.4170 C   0  0  0  0  0  0  0  0  0  0  0  0
   15.6552    1.5767   -2.1053 C   0  0  0  0  0  0  0  0  0  0  0  0
   16.4604    2.1274   -2.6075 H   0  0  0  0  0  0  0  0  0  0  0  0
   15.7631    1.7172   -1.0248 H   0  0  0  0  0  0  0  0  0  0  0  0
   14.2932    2.1131   -2.5635 C   0  0  0  0  0  0  0  0  0  0  0  0
   14.2236    2.0291   -3.6571 H   0  0  0  0  0  0  0  0  0  0  0  0
   13.5125    1.4814   -2.1235 H   0  0  0  0  0  0  0  0  0  0  0  0
   14.0362    3.5684   -2.1287 C   0  0  0  0  0  0  0  0  0  0  0  0
   14.2090    3.6777   -1.0482 H   0  0  0  0  0  0  0  0  0  0  0  0
   12.9899    3.8055   -2.3389 H   0  0  0  0  0  0  0  0  0  0  0  0
   14.8771    4.5725   -2.9080 C   0  0  0  0  0  0  0  0  0  0  0  0
   14.6101    4.4797   -3.9661 H   0  0  0  0  0  0  0  0  0  0  0  0
   14.6697    5.5983   -2.5759 H   0  0  0  0  0  0  0  0  0  0  0  0
   15.9459    4.3744   -2.7704 H   0  0  0  0  0  0  0  0  0  0  0  0
   15.3071   -0.8595   -1.5043 C   0  0  0  0  0  0  0  0  0  0  0  0
   14.8729   -0.5306   -0.5651 H   0  0  0  0  0  0  0  0  0  0  0  0
   13.3080   -3.0429   -0.5916 C   0  0  0  0  0  0  0  0  0  0  0  0
   12.4462   -3.1247   -1.4640 O   0  0  0  0  0  0  0  0  0  0  0  0
   13.0288   -2.6848    0.7131 N   0  0  0  0  0  0  0  0  0  0  0  0
   11.7200   -2.3137    1.2722 C   0  0  0  0  0  0  0  0  0  0  0  0
   10.9175   -2.4755    0.5442 H   0  0  0  0  0  0  0  0  0  0  0  0
   11.7127   -1.2542    1.5591 H   0  0  0  0  0  0  0  0  0  0  0  0
   11.5050   -2.9198    2.1620 H   0  0  0  0  0  0  0  0  0  0  0  0
   14.2393   -2.6240    1.3671 C   0  0  0  0  0  0  0  0  0  0  0  0
   14.4082   -2.3028    2.6750 N   0  0  0  0  0  0  0  0  0  0  0  0
   15.3479   -2.3343    3.0781 H   0  0  0  0  0  0  0  0  0  0  0  0
   13.5958   -2.1239    3.2601 H   0  0  0  0  0  0  0  0  0  0  0  0
   15.2440   -2.9117    0.6100 N   0  0  0  0  0  4  0  0  0  0  0  0
   16.2111   -2.9626    0.9446 H   0  0  0  0  0  0  0  0  0  0  0  0
   14.3178   -5.5597   -1.7659 C   0  0  0  0  0  0  0  0  0  0  0  0
   13.3623   -5.1811   -2.1172 H   0  0  0  0  0  0  0  0  0  0  0  0
   14.6484   -6.9088   -1.9690 C   0  0  0  0  0  0  0  0  0  0  0  0
   13.9612   -7.5725   -2.4862 H   0  0  0  0  0  0  0  0  0  0  0  0
  1  2  1  0
  2  3  2  0
  3  4  1  0
  3  5  1  0
  5  6  1  0
  5  7  2  0
  7  8  1  0
  8  9  1  0
  9 10  2  0
 10 11  1  0
 10 12  1  0
 12 13  1  0
 12 14  2  0
 14 15  1  0
 14 16  1  0
 16 17  1  0
 17 18  1  0
 17 19  1  0
 17 20  1  0
 20 21  1  0
 20 22  1  0
 20 23  1  0
 23 24  1  0
 23 25  1  0
 23 26  1  0
 26 27  1  0
 26 28  1  0
 26 29  1  0
 16 30  2  0
 30 31  1  0
  8 32  1  0
 32 33  2  0
 32 34  1  0
 34 35  1  0
 35 36  1  0
 35 37  1  0
 35 38  1  0
 34 39  1  0
 39 40  1  0
 40 41  1  0
 40 42  1  0
 39 43  2  0
 43 44  1  0
  7 45  1  0
 45 46  1  0
 45 47  2  0
 47 48  1  0
 47  2  1  0
 43  8  1  0
 30  9  1  0
M  CHG  1  43   1
M  END
>  <score>  (211) 
5.59491

$$$$

     RDKit          3D

 46 49  0  0  0  0  0  0  0  0999 V2000
   16.1148   -8.4529   -1.6924 H   0  0  0  0  0  0  0  0  0  0  0  0
   15.8823   -7.4062   -1.5244 C   0  0  0  0  0  0  0  0  0  0  0  0
   16.7816   -6.5917   -0.8320 C   0  0  0  0  0  0  0  0  0  0  0  0
   17.7181   -6.9951   -0.4679 H   0  0  0  0  0  0  0  0  0  0  0  0
   16.4695   -5.2514   -0.5933 C   0  0  0  0  0  0  0  0  0  0  0  0
   17.1678   -4.6211   -0.0494 H   0  0  0  0  0  0  0  0  0  0  0  0
   15.2569   -4.7093   -1.0385 C   0  0  0  0  0  0  0  0  0  0  0  0
   14.9065   -3.2592   -0.7313 C   0  0  0  0  0  0  0  0  0  0  0  0
   15.4164   -2.2741   -1.7779 C   0  0  0  0  0  0  0  0  0  0  0  0
   15.9174   -2.6752   -3.0284 C   0  0  0  0  0  0  0  0  0  0  0  0
   15.9549   -3.7319   -3.2762 H   0  0  0  0  0  0  0  0  0  0  0  0
   16.3716   -1.7270   -3.9551 C   0  0  0  0  0  0  0  0  0  0  0  0
   16.7730   -2.0503   -4.9089 H   0  0  0  0  0  0  0  0  0  0  0  0
   16.3097   -0.3623   -3.6532 C   0  0  0  0  0  0  0  0  0  0  0  0
   16.6689    0.3676   -4.3737 H   0  0  0  0  0  0  0  0  0  0  0  0
   15.8137    0.0614   -2.4107 C   0  0  0  0  0  0  0  0  0  0  0  0
   15.7338    1.4855   -2.0536 C   0  0  0  0  0  0  0  0  0  0  0  0
   15.4235    2.4520   -3.0205 C   0  0  0  0  0  0  0  0  0  0  0  0
   15.2634    2.1397   -4.0481 H   0  0  0  0  0  0  0  0  0  0  0  0
   15.2726    3.7982   -2.6624 C   0  0  0  0  0  0  0  0  0  0  0  0
   14.9940    4.5371   -3.4075 H   0  0  0  0  0  0  0  0  0  0  0  0
   15.4544    4.1980   -1.3335 C   0  0  0  0  0  0  0  0  0  0  0  0
   15.1948    6.0181   -0.8221 Br  0  0  0  0  0  0  0  0  0  0  0  0
   15.7980    3.2495   -0.3691 C   0  0  0  0  0  0  0  0  0  0  0  0
   15.9469    3.5708    0.6592 H   0  0  0  0  0  0  0  0  0  0  0  0
   15.9241    1.9017   -0.7229 C   0  0  0  0  0  0  0  0  0  0  0  0
   16.1709    1.1745    0.0440 H   0  0  0  0  0  0  0  0  0  0  0  0
   15.3658   -0.8996   -1.4949 C   0  0  0  0  0  0  0  0  0  0  0  0
   14.9553   -0.5576   -0.5480 H   0  0  0  0  0  0  0  0  0  0  0  0
   13.3988   -3.0729   -0.4903 C   0  0  0  0  0  0  0  0  0  0  0  0
   12.4842   -3.2807   -1.2862 O   0  0  0  0  0  0  0  0  0  0  0  0
   13.1839   -2.6461    0.8000 N   0  0  0  0  0  0  0  0  0  0  0  0
   11.9082   -2.2676    1.4013 C   0  0  0  0  0  0  0  0  0  0  0  0
   11.9035   -2.5235    2.4661 H   0  0  0  0  0  0  0  0  0  0  0  0
   11.0776   -2.7965    0.9234 H   0  0  0  0  0  0  0  0  0  0  0  0
   11.7469   -1.1897    1.2982 H   0  0  0  0  0  0  0  0  0  0  0  0
   14.4060   -2.5377    1.4108 C   0  0  0  0  0  0  0  0  0  0  0  0
   14.5555   -2.1108    2.6976 N   0  0  0  0  0  0  0  0  0  0  0  0
   13.7358   -2.1870    3.2987 H   0  0  0  0  0  0  0  0  0  0  0  0
   15.4746   -2.2129    3.1176 H   0  0  0  0  0  0  0  0  0  0  0  0
   15.3740   -2.8742    0.6203 N   0  0  0  0  0  4  0  0  0  0  0  0
   16.3624   -2.7958    0.8655 H   0  0  0  0  0  0  0  0  0  0  0  0
   14.3612   -5.5325   -1.7476 C   0  0  0  0  0  0  0  0  0  0  0  0
   13.4170   -5.1303   -2.1065 H   0  0  0  0  0  0  0  0  0  0  0  0
   14.6746   -6.8767   -1.9823 C   0  0  0  0  0  0  0  0  0  0  0  0
   13.9744   -7.5071   -2.5196 H   0  0  0  0  0  0  0  0  0  0  0  0
  1  2  1  0
  2  3  2  0
  3  4  1  0
  3  5  1  0
  5  6  1  0
  5  7  2  0
  7  8  1  0
  8  9  1  0
  9 10  2  0
 10 11  1  0
 10 12  1  0
 12 13  1  0
 12 14  2  0
 14 15  1  0
 14 16  1  0
 16 17  1  0
 17 18  2  0
 18 19  1  0
 18 20  1  0
 20 21  1  0
 20 22  2  0
 22 23  1  0
 22 24  1  0
 24 25  1  0
 24 26  2  0
 26 27  1  0
 16 28  2  0
 28 29  1  0
  8 30  1  0
 30 31  2  0
 30 32  1  0
 32 33  1  0
 33 34  1  0
 33 35  1  0
 33 36  1  0
 32 37  1  0
 37 38  1  0
 38 39  1  0
 38 40  1  0
 37 41  2  0
 41 42  1  0
  7 43  1  0
 43 44  1  0
 43 45  2  0
 45 46  1  0
 45  2  1  0
 41  8  1  0
 28  9  1  0
 26 17  1  0
M  CHG  1  41   1
M  END
>  <score>  (212) 
5.59453

$$$$

     RDKit          3D

 43 46  0  0  0  0  0  0  0  0999 V2000
   10.6895   -9.3077   -1.9263 H   0  0  0  0  0  0  0  0  0  0  0  0
   11.7489   -9.0860   -1.8369 C   0  0  0  0  0  0  0  0  0  0  0  0
   12.7765  -10.0084   -1.9737 N   0  0  0  0  0  0  0  0  0  0  0  0
   13.8828   -9.3360   -1.7470 C   0  0  0  0  0  0  0  0  0  0  0  0
   14.8715   -9.7885   -1.7344 H   0  0  0  0  0  0  0  0  0  0  0  0
   13.6248   -7.9879   -1.5180 N   0  0  0  0  0  0  0  0  0  0  0  0
   14.5842   -6.9947   -1.2684 C   0  0  0  0  0  0  0  0  0  0  0  0
   15.9280   -7.3514   -1.1076 C   0  0  0  0  0  0  0  0  0  0  0  0
   16.1971   -8.3950   -1.1884 H   0  0  0  0  0  0  0  0  0  0  0  0
   16.8986   -6.3898   -0.8201 C   0  0  0  0  0  0  0  0  0  0  0  0
   17.9407   -6.6756   -0.7119 H   0  0  0  0  0  0  0  0  0  0  0  0
   16.5202   -5.0581   -0.6586 C   0  0  0  0  0  0  0  0  0  0  0  0
   17.2743   -4.3224   -0.3999 H   0  0  0  0  0  0  0  0  0  0  0  0
   15.1817   -4.6623   -0.8027 C   0  0  0  0  0  0  0  0  0  0  0  0
   14.7822   -3.2096   -0.5726 C   0  0  0  0  0  0  0  0  0  0  0  0
   15.3682   -2.2610   -1.6111 C   0  0  0  0  0  0  0  0  0  0  0  0
   15.8889   -2.7223   -2.8352 C   0  0  0  0  0  0  0  0  0  0  0  0
   15.9104   -3.7875   -3.0484 H   0  0  0  0  0  0  0  0  0  0  0  0
   16.3907   -1.8214   -3.7844 C   0  0  0  0  0  0  0  0  0  0  0  0
   16.8044   -2.1781   -4.7213 H   0  0  0  0  0  0  0  0  0  0  0  0
   16.3702   -0.4482   -3.5270 C   0  0  0  0  0  0  0  0  0  0  0  0
   16.7613    0.2537   -4.2566 H   0  0  0  0  0  0  0  0  0  0  0  0
   15.8403    0.0243   -2.3247 C   0  0  0  0  0  0  0  0  0  0  0  0
   15.8197    1.0889   -2.1123 H   0  0  0  0  0  0  0  0  0  0  0  0
   15.3399   -0.8755   -1.3792 C   0  0  0  0  0  0  0  0  0  0  0  0
   14.9294   -0.5022   -0.4453 H   0  0  0  0  0  0  0  0  0  0  0  0
   13.2567   -2.9667   -0.4522 C   0  0  0  0  0  0  0  0  0  0  0  0
   12.3885   -3.2094   -1.2919 O   0  0  0  0  0  0  0  0  0  0  0  0
   12.9830   -2.4227    0.7863 N   0  0  0  0  0  0  0  0  0  0  0  0
   11.6796   -2.1718    1.4022 C   0  0  0  0  0  0  0  0  0  0  0  0
   11.6352   -1.1221    1.7275 H   0  0  0  0  0  0  0  0  0  0  0  0
   10.8605   -2.3438    0.6965 H   0  0  0  0  0  0  0  0  0  0  0  0
   11.5344   -2.8427    2.2653 H   0  0  0  0  0  0  0  0  0  0  0  0
   14.1680   -2.4084    1.4776 C   0  0  0  0  0  0  0  0  0  0  0  0
   14.2477   -2.0633    2.7892 N   0  0  0  0  0  0  0  0  0  0  0  0
   15.0751   -2.3819    3.2884 H   0  0  0  0  0  0  0  0  0  0  0  0
   13.3630   -1.9894    3.2939 H   0  0  0  0  0  0  0  0  0  0  0  0
   15.1828   -2.8178    0.7945 N   0  0  0  0  0  4  0  0  0  0  0  0
   16.1165   -2.9750    1.1829 H   0  0  0  0  0  0  0  0  0  0  0  0
   14.2319   -5.6443   -1.1335 C   0  0  0  0  0  0  0  0  0  0  0  0
   13.1951   -5.3603   -1.2594 H   0  0  0  0  0  0  0  0  0  0  0  0
   12.2480   -7.8500   -1.5463 C   0  0  0  0  0  0  0  0  0  0  0  0
   11.6662   -6.9535   -1.3607 H   0  0  0  0  0  0  0  0  0  0  0  0
  1  2  1  0
  2  3  1  0
  3  4  2  0
  4  5  1  0
  4  6  1  0
  6  7  1  0
  7  8  2  0
  8  9  1  0
  8 10  1  0
 10 11  1  0
 10 12  2  0
 12 13  1  0
 12 14  1  0
 14 15  1  0
 15 16  1  0
 16 17  2  0
 17 18  1  0
 17 19  1  0
 19 20  1  0
 19 21  2  0
 21 22  1  0
 21 23  1  0
 23 24  1  0
 23 25  2  0
 25 26  1  0
 15 27  1  0
 27 28  2  0
 27 29  1  0
 29 30  1  0
 30 31  1  0
 30 32  1  0
 30 33  1  0
 29 34  1  0
 34 35  1  0
 35 36  1  0
 35 37  1  0
 34 38  2  0
 38 39  1  0
 14 40  2  0
 40 41  1  0
  6 42  1  0
 42 43  1  0
 42  2  2  0
 40  7  1  0
 38 15  1  0
 25 16  1  0
M  CHG  1  38   1
M  END
>  <score>  (213) 
5.59137

$$$$

     RDKit          3D

 48 51  0  0  0  0  0  0  0  0999 V2000
   13.2078   -9.2204   -3.8197 H   0  0  0  0  0  0  0  0  0  0  0  0
   13.5330  -10.0613   -3.4518 O   0  0  0  0  0  0  0  0  0  0  0  0
   13.6554   -9.9297   -2.0966 C   0  0  0  0  0  0  0  0  0  0  0  0
   14.0043  -11.0265   -1.3260 C   0  0  0  0  0  0  0  0  0  0  0  0
   14.3110  -11.8984   -1.8594 H   0  0  0  0  0  0  0  0  0  0  0  0
   14.0403  -10.9801    0.0642 C   0  0  0  0  0  0  0  0  0  0  0  0
   14.4913  -12.3939    0.9860 Cl  0  0  0  0  0  0  0  0  0  0  0  0
   13.7367   -9.7737    0.6997 C   0  0  0  0  0  0  0  0  0  0  0  0
   13.7378   -9.7257    1.7795 H   0  0  0  0  0  0  0  0  0  0  0  0
   13.5118   -8.6223   -0.0665 C   0  0  0  0  0  0  0  0  0  0  0  0
   13.3730   -7.6450    0.3945 H   0  0  0  0  0  0  0  0  0  0  0  0
   13.5277   -8.6940   -1.4664 C   0  0  0  0  0  0  0  0  0  0  0  0
   13.5929   -7.5426   -2.2041 O   0  0  0  0  0  0  0  0  0  0  0  0
   14.6366   -6.7535   -1.7830 C   0  0  0  0  0  0  0  0  0  0  0  0
   15.9055   -7.2605   -1.4297 C   0  0  0  0  0  0  0  0  0  0  0  0
   16.1042   -8.3185   -1.5723 H   0  0  0  0  0  0  0  0  0  0  0  0
   16.8724   -6.4202   -0.8604 C   0  0  0  0  0  0  0  0  0  0  0  0
   17.8411   -6.8147   -0.5569 H   0  0  0  0  0  0  0  0  0  0  0  0
   16.5590   -5.0792   -0.6247 C   0  0  0  0  0  0  0  0  0  0  0  0
   17.2967   -4.4354   -0.1545 H   0  0  0  0  0  0  0  0  0  0  0  0
   15.2976   -4.5693   -0.9689 C   0  0  0  0  0  0  0  0  0  0  0  0
   14.9094   -3.1433   -0.6584 C   0  0  0  0  0  0  0  0  0  0  0  0
   15.4267   -2.1772   -1.7060 C   0  0  0  0  0  0  0  0  0  0  0  0
   15.9401   -2.6207   -2.9391 C   0  0  0  0  0  0  0  0  0  0  0  0
   15.9788   -3.6855   -3.1544 H   0  0  0  0  0  0  0  0  0  0  0  0
   16.4097   -1.7034   -3.8851 C   0  0  0  0  0  0  0  0  0  0  0  0
   16.8153   -2.0565   -4.8275 H   0  0  0  0  0  0  0  0  0  0  0  0
   16.3577   -0.3333   -3.6133 C   0  0  0  0  0  0  0  0  0  0  0  0
   16.7329    0.3752   -4.3453 H   0  0  0  0  0  0  0  0  0  0  0  0
   15.8174    0.1176   -2.4050 C   0  0  0  0  0  0  0  0  0  0  0  0
   15.7628    1.1804   -2.1943 H   0  0  0  0  0  0  0  0  0  0  0  0
   15.3485   -0.8000   -1.4624 C   0  0  0  0  0  0  0  0  0  0  0  0
   14.9272   -0.4433   -0.5264 H   0  0  0  0  0  0  0  0  0  0  0  0
   13.3872   -2.9893   -0.4823 C   0  0  0  0  0  0  0  0  0  0  0  0
   12.5129   -3.2190   -1.3164 O   0  0  0  0  0  0  0  0  0  0  0  0
   13.1043   -2.5937    0.8061 N   0  0  0  0  0  0  0  0  0  0  0  0
   11.7811   -2.2791    1.3482 C   0  0  0  0  0  0  0  0  0  0  0  0
   11.7200   -1.2212    1.6239 H   0  0  0  0  0  0  0  0  0  0  0  0
   11.5643   -2.8854    2.2344 H   0  0  0  0  0  0  0  0  0  0  0  0
   10.9996   -2.4785    0.6062 H   0  0  0  0  0  0  0  0  0  0  0  0
   14.3086   -2.4847    1.4664 C   0  0  0  0  0  0  0  0  0  0  0  0
   14.4798   -2.1364    2.7702 N   0  0  0  0  0  0  0  0  0  0  0  0
   13.6647   -2.1051    3.3797 H   0  0  0  0  0  0  0  0  0  0  0  0
   15.4044   -2.2580    3.1798 H   0  0  0  0  0  0  0  0  0  0  0  0
   15.3189   -2.7742    0.7122 N   0  0  0  0  0  4  0  0  0  0  0  0
   16.2795   -2.8372    1.0532 H   0  0  0  0  0  0  0  0  0  0  0  0
   14.3723   -5.4084   -1.5974 C   0  0  0  0  0  0  0  0  0  0  0  0
   13.3961   -5.0390   -1.8885 H   0  0  0  0  0  0  0  0  0  0  0  0
  1  2  1  0
  2  3  1  0
  3  4  2  0
  4  5  1  0
  4  6  1  0
  6  7  1  0
  6  8  2  0
  8  9  1  0
  8 10  1  0
 10 11  1  0
 10 12  2  0
 12 13  1  0
 13 14  1  0
 14 15  2  0
 15 16  1  0
 15 17  1  0
 17 18  1  0
 17 19  2  0
 19 20  1  0
 19 21  1  0
 21 22  1  0
 22 23  1  0
 23 24  2  0
 24 25  1  0
 24 26  1  0
 26 27  1  0
 26 28  2  0
 28 29  1  0
 28 30  1  0
 30 31  1  0
 30 32  2  0
 32 33  1  0
 22 34  1  0
 34 35  2  0
 34 36  1  0
 36 37  1  0
 37 38  1  0
 37 39  1  0
 37 40  1  0
 36 41  1  0
 41 42  1  0
 42 43  1  0
 42 44  1  0
 41 45  2  0
 45 46  1  0
 21 47  2  0
 47 48  1  0
 12  3  1  0
 47 14  1  0
 45 22  1  0
 32 23  1  0
M  CHG  1  45   1
M  END
>  <score>  (214) 
5.58882

$$$$

     RDKit          3D

 51 54  0  0  0  0  0  0  0  0999 V2000
   16.0963   -8.4180   -1.6546 H   0  0  0  0  0  0  0  0  0  0  0  0
   15.8551   -7.3730   -1.4870 C   0  0  0  0  0  0  0  0  0  0  0  0
   16.7535   -6.5493   -0.8022 C   0  0  0  0  0  0  0  0  0  0  0  0
   17.6914   -6.9444   -0.4275 H   0  0  0  0  0  0  0  0  0  0  0  0
   16.4445   -5.2059   -0.5845 C   0  0  0  0  0  0  0  0  0  0  0  0
   17.1512   -4.5759   -0.0498 H   0  0  0  0  0  0  0  0  0  0  0  0
   15.2229   -4.6742   -1.0308 C   0  0  0  0  0  0  0  0  0  0  0  0
   14.8573   -3.2337   -0.7299 C   0  0  0  0  0  0  0  0  0  0  0  0
   15.4198   -2.2373   -1.7330 C   0  0  0  0  0  0  0  0  0  0  0  0
   15.9383   -2.6364   -2.9741 C   0  0  0  0  0  0  0  0  0  0  0  0
   15.9836   -3.6897   -3.2239 H   0  0  0  0  0  0  0  0  0  0  0  0
   16.3936   -1.6949   -3.9023 C   0  0  0  0  0  0  0  0  0  0  0  0
   16.7937   -2.0201   -4.8556 H   0  0  0  0  0  0  0  0  0  0  0  0
   16.3171   -0.3320   -3.6108 C   0  0  0  0  0  0  0  0  0  0  0  0
   16.6708    0.3955   -4.3356 H   0  0  0  0  0  0  0  0  0  0  0  0
   15.7936    0.0953   -2.3831 C   0  0  0  0  0  0  0  0  0  0  0  0
   15.6646    1.5207   -2.0613 C   0  0  0  0  0  0  0  0  0  0  0  0
   15.4063    2.4742   -3.0604 C   0  0  0  0  0  0  0  0  0  0  0  0
   15.3070    2.1613   -4.0965 H   0  0  0  0  0  0  0  0  0  0  0  0
   15.2835    3.8292   -2.7327 C   0  0  0  0  0  0  0  0  0  0  0  0
   15.0985    4.5652   -3.5087 H   0  0  0  0  0  0  0  0  0  0  0  0
   15.4105    4.2412   -1.4044 C   0  0  0  0  0  0  0  0  0  0  0  0
   15.3181    5.2924   -1.1493 H   0  0  0  0  0  0  0  0  0  0  0  0
   15.6493    3.3014   -0.3949 C   0  0  0  0  0  0  0  0  0  0  0  0
   15.7148    3.7247    1.0380 C   0  0  0  0  0  0  0  0  0  0  0  0
   15.1955    4.6843    1.1601 H   0  0  0  0  0  0  0  0  0  0  0  0
   15.2263    2.9620    1.6533 H   0  0  0  0  0  0  0  0  0  0  0  0
   17.1240    3.8613    1.4346 N   0  0  0  0  0  0  0  0  0  0  0  0
   17.2229    4.3698    2.3122 H   0  0  0  0  0  0  0  0  0  0  0  0
   17.6820    4.2844    0.6933 H   0  0  0  0  0  0  0  0  0  0  0  0
   15.7840    1.9491   -0.7320 C   0  0  0  0  0  0  0  0  0  0  0  0
   15.9847    1.2219    0.0505 H   0  0  0  0  0  0  0  0  0  0  0  0
   15.3621   -0.8626   -1.4553 C   0  0  0  0  0  0  0  0  0  0  0  0
   14.9468   -0.5143   -0.5144 H   0  0  0  0  0  0  0  0  0  0  0  0
   13.3376   -3.0360   -0.5613 C   0  0  0  0  0  0  0  0  0  0  0  0
   12.4720   -3.2098   -1.4150 O   0  0  0  0  0  0  0  0  0  0  0  0
   13.0611   -2.6662    0.7393 N   0  0  0  0  0  0  0  0  0  0  0  0
   11.7554   -2.3086    1.2899 C   0  0  0  0  0  0  0  0  0  0  0  0
   11.7442   -1.2497    1.5703 H   0  0  0  0  0  0  0  0  0  0  0  0
   11.5358   -2.9074    2.1809 H   0  0  0  0  0  0  0  0  0  0  0  0
   10.9583   -2.4826    0.5541 H   0  0  0  0  0  0  0  0  0  0  0  0
   14.2654   -2.5875    1.4020 C   0  0  0  0  0  0  0  0  0  0  0  0
   14.4483   -2.2313    2.7043 N   0  0  0  0  0  0  0  0  0  0  0  0
   15.3844   -2.2876    3.1059 H   0  0  0  0  0  0  0  0  0  0  0  0
   13.6374   -2.1119    3.3083 H   0  0  0  0  0  0  0  0  0  0  0  0
   15.2643   -2.8981    0.6471 N   0  0  0  0  0  4  0  0  0  0  0  0
   16.2223   -2.9886    0.9843 H   0  0  0  0  0  0  0  0  0  0  0  0
   14.3345   -5.5031   -1.7363 C   0  0  0  0  0  0  0  0  0  0  0  0
   13.3922   -5.1059   -2.1055 H   0  0  0  0  0  0  0  0  0  0  0  0
   14.6484   -6.8460   -1.9586 C   0  0  0  0  0  0  0  0  0  0  0  0
   13.9503   -7.4716   -2.5033 H   0  0  0  0  0  0  0  0  0  0  0  0
  1  2  1  0
  2  3  2  0
  3  4  1  0
  3  5  1  0
  5  6  1  0
  5  7  2  0
  7  8  1  0
  8  9  1  0
  9 10  2  0
 10 11  1  0
 10 12  1  0
 12 13  1  0
 12 14  2  0
 14 15  1  0
 14 16  1  0
 16 17  1  0
 17 18  2  0
 18 19  1  0
 18 20  1  0
 20 21  1  0
 20 22  2  0
 22 23  1  0
 22 24  1  0
 24 25  1  0
 25 26  1  0
 25 27  1  0
 25 28  1  0
 28 29  1  0
 28 30  1  0
 24 31  2  0
 31 32  1  0
 16 33  2  0
 33 34  1  0
  8 35  1  0
 35 36  2  0
 35 37  1  0
 37 38  1  0
 38 39  1  0
 38 40  1  0
 38 41  1  0
 37 42  1  0
 42 43  1  0
 43 44  1  0
 43 45  1  0
 42 46  2  0
 46 47  1  0
  7 48  1  0
 48 49  1  0
 48 50  2  0
 50 51  1  0
 50  2  1  0
 46  8  1  0
 33  9  1  0
 31 17  1  0
M  CHG  1  46   1
M  END
>  <score>  (215) 
5.5867

$$$$

     RDKit          3D

 52 55  0  0  0  0  0  0  0  0999 V2000
   16.1263   -8.3891   -1.6986 H   0  0  0  0  0  0  0  0  0  0  0  0
   15.8869   -7.3498   -1.5023 C   0  0  0  0  0  0  0  0  0  0  0  0
   16.7856   -6.5415   -0.8020 C   0  0  0  0  0  0  0  0  0  0  0  0
   17.7339   -6.9477   -0.4648 H   0  0  0  0  0  0  0  0  0  0  0  0
   16.4634   -5.2068   -0.5303 C   0  0  0  0  0  0  0  0  0  0  0  0
   17.1671   -4.5823    0.0135 H   0  0  0  0  0  0  0  0  0  0  0  0
   15.2348   -4.6671   -0.9521 C   0  0  0  0  0  0  0  0  0  0  0  0
   14.8617   -3.2188   -0.6444 C   0  0  0  0  0  0  0  0  0  0  0  0
   15.4389   -2.2278   -1.6469 C   0  0  0  0  0  0  0  0  0  0  0  0
   15.9483   -2.6210   -2.8987 C   0  0  0  0  0  0  0  0  0  0  0  0
   16.0105   -3.6761   -3.1470 H   0  0  0  0  0  0  0  0  0  0  0  0
   16.3651   -1.6653   -3.8374 C   0  0  0  0  0  0  0  0  0  0  0  0
   16.7664   -1.9786   -4.7967 H   0  0  0  0  0  0  0  0  0  0  0  0
   16.2503   -0.3020   -3.5391 C   0  0  0  0  0  0  0  0  0  0  0  0
   16.5568    0.4576   -4.2484 H   0  0  0  0  0  0  0  0  0  0  0  0
   15.7460    0.1002   -2.3084 C   0  0  0  0  0  0  0  0  0  0  0  0
   15.6137    1.4451   -2.0062 N   0  0  0  0  0  0  0  0  0  0  0  0
   15.7030    2.1302   -2.7459 H   0  0  0  0  0  0  0  0  0  0  0  0
   15.7483    1.9208   -0.7311 C   0  0  0  0  0  0  0  0  0  0  0  0
   16.1982    1.2348    0.1759 O   0  0  0  0  0  0  0  0  0  0  0  0
   15.3922    3.2277   -0.5555 N   0  0  0  0  0  0  0  0  0  0  0  0
   14.7438    3.6030   -1.2325 H   0  0  0  0  0  0  0  0  0  0  0  0
   15.6115    3.9166    0.6231 C   0  0  0  0  0  0  0  0  0  0  0  0
   16.7388    3.6203    1.3786 C   0  0  0  0  0  0  0  0  0  0  0  0
   17.3775    2.8131    1.0580 H   0  0  0  0  0  0  0  0  0  0  0  0
   17.0428    4.3562    2.5183 C   0  0  0  0  0  0  0  0  0  0  0  0
   17.9435    4.1607    3.0926 H   0  0  0  0  0  0  0  0  0  0  0  0
   16.1672    5.3534    2.9399 C   0  0  0  0  0  0  0  0  0  0  0  0
   16.5706    6.3221    4.3137 Cl  0  0  0  0  0  0  0  0  0  0  0  0
   14.9775    5.5814    2.2504 C   0  0  0  0  0  0  0  0  0  0  0  0
   14.2735    6.3062    2.6459 H   0  0  0  0  0  0  0  0  0  0  0  0
   14.7221    4.8886    1.0621 C   0  0  0  0  0  0  0  0  0  0  0  0
   13.8353    5.0872    0.4779 H   0  0  0  0  0  0  0  0  0  0  0  0
   15.3533   -0.8548   -1.3720 C   0  0  0  0  0  0  0  0  0  0  0  0
   14.9472   -0.5126   -0.4249 H   0  0  0  0  0  0  0  0  0  0  0  0
   13.3359   -2.9832   -0.5558 C   0  0  0  0  0  0  0  0  0  0  0  0
   12.5039   -3.2135   -1.4309 O   0  0  0  0  0  0  0  0  0  0  0  0
   12.9971   -2.4748    0.6870 N   0  0  0  0  0  0  0  0  0  0  0  0
   11.6294   -2.2487    1.1972 C   0  0  0  0  0  0  0  0  0  0  0  0
   11.4808   -1.2166    1.5434 H   0  0  0  0  0  0  0  0  0  0  0  0
   11.4010   -2.9264    2.0306 H   0  0  0  0  0  0  0  0  0  0  0  0
   10.8857   -2.4328    0.4138 H   0  0  0  0  0  0  0  0  0  0  0  0
   14.1655   -2.4596    1.4216 C   0  0  0  0  0  0  0  0  0  0  0  0
   14.3102   -2.0819    2.7233 N   0  0  0  0  0  0  0  0  0  0  0  0
   15.2095   -2.2612    3.1656 H   0  0  0  0  0  0  0  0  0  0  0  0
   13.4825   -1.9088    3.2940 H   0  0  0  0  0  0  0  0  0  0  0  0
   15.1975   -2.8613    0.7497 N   0  0  0  0  0  4  0  0  0  0  0  0
   16.1544   -2.8258    1.1053 H   0  0  0  0  0  0  0  0  0  0  0  0
   14.3579   -5.4819   -1.6898 C   0  0  0  0  0  0  0  0  0  0  0  0
   13.4193   -5.0754   -2.0570 H   0  0  0  0  0  0  0  0  0  0  0  0
   14.6799   -6.8154   -1.9585 C   0  0  0  0  0  0  0  0  0  0  0  0
   13.9895   -7.4348   -2.5195 H   0  0  0  0  0  0  0  0  0  0  0  0
  1  2  1  0
  2  3  2  0
  3  4  1  0
  3  5  1  0
  5  6  1  0
  5  7  2  0
  7  8  1  0
  8  9  1  0
  9 10  2  0
 10 11  1  0
 10 12  1  0
 12 13  1  0
 12 14  2  0
 14 15  1  0
 14 16  1  0
 16 17  1  0
 17 18  1  0
 17 19  1  0
 19 20  2  0
 19 21  1  0
 21 22  1  0
 21 23  1  0
 23 24  2  0
 24 25  1  0
 24 26  1  0
 26 27  1  0
 26 28  2  0
 28 29  1  0
 28 30  1  0
 30 31  1  0
 30 32  2  0
 32 33  1  0
 16 34  2  0
 34 35  1  0
  8 36  1  0
 36 37  2  0
 36 38  1  0
 38 39  1  0
 39 40  1  0
 39 41  1  0
 39 42  1  0
 38 43  1  0
 43 44  1  0
 44 45  1  0
 44 46  1  0
 43 47  2  0
 47 48  1  0
  7 49  1  0
 49 50  1  0
 49 51  2  0
 51 52  1  0
 51  2  1  0
 47  8  1  0
 34  9  1  0
 32 23  1  0
M  CHG  1  47   1
M  END
>  <score>  (216) 
5.58521

$$$$

     RDKit          3D

 54 56  0  0  0  0  0  0  0  0999 V2000
   16.0811   -8.4305   -1.6576 H   0  0  0  0  0  0  0  0  0  0  0  0
   15.8539   -7.3768   -1.5243 C   0  0  0  0  0  0  0  0  0  0  0  0
   16.7574   -6.5524   -0.8477 C   0  0  0  0  0  0  0  0  0  0  0  0
   17.6884   -6.9467   -0.4543 H   0  0  0  0  0  0  0  0  0  0  0  0
   16.4583   -5.2056   -0.6426 C   0  0  0  0  0  0  0  0  0  0  0  0
   17.1546   -4.5644   -0.1076 H   0  0  0  0  0  0  0  0  0  0  0  0
   15.2439   -4.6630   -1.0834 C   0  0  0  0  0  0  0  0  0  0  0  0
   14.9092   -3.2162   -0.7415 C   0  0  0  0  0  0  0  0  0  0  0  0
   15.4235   -2.2009   -1.7561 C   0  0  0  0  0  0  0  0  0  0  0  0
   15.9664   -2.5737   -2.9978 C   0  0  0  0  0  0  0  0  0  0  0  0
   16.0421   -3.6229   -3.2672 H   0  0  0  0  0  0  0  0  0  0  0  0
   16.4179   -1.5977   -3.8952 C   0  0  0  0  0  0  0  0  0  0  0  0
   16.8410   -1.8859   -4.8510 H   0  0  0  0  0  0  0  0  0  0  0  0
   16.3151   -0.2441   -3.5648 C   0  0  0  0  0  0  0  0  0  0  0  0
   16.6569    0.5201   -4.2521 H   0  0  0  0  0  0  0  0  0  0  0  0
   15.7568    0.1509   -2.3442 C   0  0  0  0  0  0  0  0  0  0  0  0
   15.6124    1.4607   -1.9611 O   0  0  0  0  0  0  0  0  0  0  0  0
   16.0004    2.4601   -2.9094 C   0  0  0  0  0  0  0  0  0  0  0  0
   15.4030    2.3650   -3.8218 H   0  0  0  0  0  0  0  0  0  0  0  0
   17.0529    2.3310   -3.1768 H   0  0  0  0  0  0  0  0  0  0  0  0
   15.7896    3.8412   -2.2873 C   0  0  0  0  0  0  0  0  0  0  0  0
   16.0219    4.6173   -3.0199 H   0  0  0  0  0  0  0  0  0  0  0  0
   16.4693    3.9605   -1.4383 H   0  0  0  0  0  0  0  0  0  0  0  0
   14.3473    3.9964   -1.8074 C   0  0  0  0  0  0  0  0  0  0  0  0
   14.2365    4.9369   -1.2552 H   0  0  0  0  0  0  0  0  0  0  0  0
   14.1134    3.1754   -1.1200 H   0  0  0  0  0  0  0  0  0  0  0  0
   13.4296    3.9742   -2.9625 N   0  0  0  0  0  0  0  0  0  0  0  0
   12.0720    3.4982   -2.6521 C   0  0  0  0  0  0  0  0  0  0  0  0
   11.5584    4.2056   -1.9924 H   0  0  0  0  0  0  0  0  0  0  0  0
   11.4880    3.3906   -3.5714 H   0  0  0  0  0  0  0  0  0  0  0  0
   12.1156    2.5238   -2.1543 H   0  0  0  0  0  0  0  0  0  0  0  0
   13.4709    5.1738   -3.8176 C   0  0  0  0  0  0  0  0  0  0  0  0
   13.0237    6.0268   -3.2965 H   0  0  0  0  0  0  0  0  0  0  0  0
   14.5031    5.4255   -4.0771 H   0  0  0  0  0  0  0  0  0  0  0  0
   12.9108    4.9982   -4.7418 H   0  0  0  0  0  0  0  0  0  0  0  0
   15.3130   -0.8316   -1.4595 C   0  0  0  0  0  0  0  0  0  0  0  0
   14.8756   -0.5162   -0.5168 H   0  0  0  0  0  0  0  0  0  0  0  0
   13.4037   -2.9865   -0.5179 C   0  0  0  0  0  0  0  0  0  0  0  0
   12.4959   -3.1005   -1.3385 O   0  0  0  0  0  0  0  0  0  0  0  0
   13.1866   -2.6347    0.7981 N   0  0  0  0  0  0  0  0  0  0  0  0
   11.9109   -2.3027    1.4174 C   0  0  0  0  0  0  0  0  0  0  0  0
   11.9216   -2.5713    2.4818 H   0  0  0  0  0  0  0  0  0  0  0  0
   11.0993   -2.8578    0.9326 H   0  0  0  0  0  0  0  0  0  0  0  0
   11.7181   -1.2256    1.3276 H   0  0  0  0  0  0  0  0  0  0  0  0
   14.4021   -2.6429    1.4357 C   0  0  0  0  0  0  0  0  0  0  0  0
   14.5679   -2.4672    2.7769 N   0  0  0  0  0  0  0  0  0  0  0  0
   13.8359   -1.9730    3.2819 H   0  0  0  0  0  0  0  0  0  0  0  0
   15.5230   -2.3912    3.1087 H   0  0  0  0  0  0  0  0  0  0  0  0
   15.3797   -2.9170    0.6336 N   0  0  0  0  0  4  0  0  0  0  0  0
   16.3085   -3.1784    0.9742 H   0  0  0  0  0  0  0  0  0  0  0  0
   14.3443   -5.4923   -1.7805 C   0  0  0  0  0  0  0  0  0  0  0  0
   13.3971   -5.0935   -2.1362 H   0  0  0  0  0  0  0  0  0  0  0  0
   14.6479   -6.8441   -1.9960 C   0  0  0  0  0  0  0  0  0  0  0  0
   13.9385   -7.4848   -2.5098 H   0  0  0  0  0  0  0  0  0  0  0  0
  1  2  1  0
  2  3  2  0
  3  4  1  0
  3  5  1  0
  5  6  1  0
  5  7  2  0
  7  8  1  0
  8  9  1  0
  9 10  2  0
 10 11  1  0
 10 12  1  0
 12 13  1  0
 12 14  2  0
 14 15  1  0
 14 16  1  0
 16 17  1  0
 17 18  1  0
 18 19  1  0
 18 20  1  0
 18 21  1  0
 21 22  1  0
 21 23  1  0
 21 24  1  0
 24 25  1  0
 24 26  1  0
 24 27  1  0
 27 28  1  0
 28 29  1  0
 28 30  1  0
 28 31  1  0
 27 32  1  0
 32 33  1  0
 32 34  1  0
 32 35  1  0
 16 36  2  0
 36 37  1  0
  8 38  1  0
 38 39  2  0
 38 40  1  0
 40 41  1  0
 41 42  1  0
 41 43  1  0
 41 44  1  0
 40 45  1  0
 45 46  1  0
 46 47  1  0
 46 48  1  0
 45 49  2  0
 49 50  1  0
  7 51  1  0
 51 52  1  0
 51 53  2  0
 53 54  1  0
 53  2  1  0
 49  8  1  0
 36  9  1  0
M  CHG  1  49   1
M  END
>  <score>  (217) 
5.58181

$$$$

     RDKit          3D

 54 57  0  0  0  0  0  0  0  0999 V2000
   16.0739   -8.2891   -1.6238 H   0  0  0  0  0  0  0  0  0  0  0  0
   15.8528   -7.2342   -1.4791 C   0  0  0  0  0  0  0  0  0  0  0  0
   16.7582   -6.4101   -0.8002 C   0  0  0  0  0  0  0  0  0  0  0  0
   17.6913   -6.8228   -0.4233 H   0  0  0  0  0  0  0  0  0  0  0  0
   16.4572   -5.0562   -0.5971 C   0  0  0  0  0  0  0  0  0  0  0  0
   17.1661   -4.4323   -0.0614 H   0  0  0  0  0  0  0  0  0  0  0  0
   15.2484   -4.5064   -1.0595 C   0  0  0  0  0  0  0  0  0  0  0  0
   14.8792   -3.0496   -0.7926 C   0  0  0  0  0  0  0  0  0  0  0  0
   15.3442   -2.0875   -1.8906 C   0  0  0  0  0  0  0  0  0  0  0  0
   16.0149   -2.5368   -3.0373 C   0  0  0  0  0  0  0  0  0  0  0  0
   16.2678   -3.5894   -3.1255 H   0  0  0  0  0  0  0  0  0  0  0  0
   16.3490   -1.6475   -4.0649 C   0  0  0  0  0  0  0  0  0  0  0  0
   16.8720   -2.0155   -4.9391 H   0  0  0  0  0  0  0  0  0  0  0  0
   16.0386   -0.2855   -3.9592 C   0  0  0  0  0  0  0  0  0  0  0  0
   16.3405    0.3850   -4.7580 H   0  0  0  0  0  0  0  0  0  0  0  0
   15.4079    0.2074   -2.8060 C   0  0  0  0  0  0  0  0  0  0  0  0
   15.2205    1.6575   -2.5643 C   0  0  0  0  0  0  0  0  0  0  0  0
   15.6438    2.1620   -1.3335 C   0  0  0  0  0  0  0  0  0  0  0  0
   16.1004    1.4885   -0.6164 H   0  0  0  0  0  0  0  0  0  0  0  0
   15.5219    3.5084   -1.0067 C   0  0  0  0  0  0  0  0  0  0  0  0
   15.9859    3.9190    0.2153 O   0  0  0  0  0  0  0  0  0  0  0  0
   15.4942    5.1869    0.6655 C   0  0  0  0  0  0  0  0  0  0  0  0
   14.4098    5.1293    0.8037 H   0  0  0  0  0  0  0  0  0  0  0  0
   15.9604    5.4582    1.6215 H   0  0  0  0  0  0  0  0  0  0  0  0
   15.7095    5.9648   -0.0748 H   0  0  0  0  0  0  0  0  0  0  0  0
   14.9547    4.3822   -1.9363 C   0  0  0  0  0  0  0  0  0  0  0  0
   14.8835    5.4299   -1.6686 H   0  0  0  0  0  0  0  0  0  0  0  0
   14.5224    3.9295   -3.1838 C   0  0  0  0  0  0  0  0  0  0  0  0
   13.9811    4.8684   -4.0344 O   0  0  0  0  0  0  0  0  0  0  0  0
   13.6289    4.5120   -5.3829 C   0  0  0  0  0  0  0  0  0  0  0  0
   13.7353    3.4446   -5.5751 H   0  0  0  0  0  0  0  0  0  0  0  0
   12.5861    4.7855   -5.5667 H   0  0  0  0  0  0  0  0  0  0  0  0
   14.2598    5.0538   -6.0991 H   0  0  0  0  0  0  0  0  0  0  0  0
   14.6731    2.5650   -3.4927 C   0  0  0  0  0  0  0  0  0  0  0  0
   14.3713    2.2237   -4.4685 H   0  0  0  0  0  0  0  0  0  0  0  0
   15.0508   -0.7125   -1.7967 C   0  0  0  0  0  0  0  0  0  0  0  0
   14.5344   -0.3459   -0.9142 H   0  0  0  0  0  0  0  0  0  0  0  0
   13.3601   -2.8955   -0.5784 C   0  0  0  0  0  0  0  0  0  0  0  0
   12.4704   -3.0843   -1.4078 O   0  0  0  0  0  0  0  0  0  0  0  0
   13.1063   -2.5339    0.7260 N   0  0  0  0  0  0  0  0  0  0  0  0
   11.7920   -2.2798    1.3190 C   0  0  0  0  0  0  0  0  0  0  0  0
   11.6261   -2.9177    2.1953 H   0  0  0  0  0  0  0  0  0  0  0  0
   11.7084   -1.2310    1.6266 H   0  0  0  0  0  0  0  0  0  0  0  0
   10.9941   -2.4843    0.5938 H   0  0  0  0  0  0  0  0  0  0  0  0
   14.3243   -2.4937    1.3691 C   0  0  0  0  0  0  0  0  0  0  0  0
   14.4802   -2.3535    2.7160 N   0  0  0  0  0  0  0  0  0  0  0  0
   13.6726   -2.0800    3.2719 H   0  0  0  0  0  0  0  0  0  0  0  0
   15.4206   -2.1976    3.0783 H   0  0  0  0  0  0  0  0  0  0  0  0
   15.3264   -2.6672    0.5679 N   0  0  0  0  0  4  0  0  0  0  0  0
   16.2741   -2.8397    0.9136 H   0  0  0  0  0  0  0  0  0  0  0  0
   14.3607   -5.3449   -1.7560 C   0  0  0  0  0  0  0  0  0  0  0  0
   13.4245   -4.9463   -2.1322 H   0  0  0  0  0  0  0  0  0  0  0  0
   14.6545   -6.6980   -1.9622 C   0  0  0  0  0  0  0  0  0  0  0  0
   13.9479   -7.3327   -2.4909 H   0  0  0  0  0  0  0  0  0  0  0  0
  1  2  1  0
  2  3  2  0
  3  4  1  0
  3  5  1  0
  5  6  1  0
  5  7  2  0
  7  8  1  0
  8  9  1  0
  9 10  2  0
 10 11  1  0
 10 12  1  0
 12 13  1  0
 12 14  2  0
 14 15  1  0
 14 16  1  0
 16 17  1  0
 17 18  2  0
 18 19  1  0
 18 20  1  0
 20 21  1  0
 21 22  1  0
 22 23  1  0
 22 24  1  0
 22 25  1  0
 20 26  2  0
 26 27  1  0
 26 28  1  0
 28 29  1  0
 29 30  1  0
 30 31  1  0
 30 32  1  0
 30 33  1  0
 28 34  2  0
 34 35  1  0
 16 36  2  0
 36 37  1  0
  8 38  1  0
 38 39  2  0
 38 40  1  0
 40 41  1  0
 41 42  1  0
 41 43  1  0
 41 44  1  0
 40 45  1  0
 45 46  1  0
 46 47  1  0
 46 48  1  0
 45 49  2  0
 49 50  1  0
  7 51  1  0
 51 52  1  0
 51 53  2  0
 53 54  1  0
 53  2  1  0
 49  8  1  0
 36  9  1  0
 34 17  1  0
M  CHG  1  49   1
M  END
>  <score>  (218) 
5.57868

$$$$

     RDKit          3D

 50 53  0  0  0  0  0  0  0  0999 V2000
   10.0587   -8.6893    2.2088 H   0  0  0  0  0  0  0  0  0  0  0  0
   10.7898   -8.7528    1.4116 C   0  0  0  0  0  0  0  0  0  0  0  0
   11.0131   -7.6326    0.6138 C   0  0  0  0  0  0  0  0  0  0  0  0
   10.4716   -6.7119    0.8031 H   0  0  0  0  0  0  0  0  0  0  0  0
   11.9331   -7.7029   -0.4325 C   0  0  0  0  0  0  0  0  0  0  0  0
   12.1137   -6.8329   -1.0503 H   0  0  0  0  0  0  0  0  0  0  0  0
   12.6335   -8.8903   -0.7020 C   0  0  0  0  0  0  0  0  0  0  0  0
   13.5194   -9.0064   -1.7476 O   0  0  0  0  0  0  0  0  0  0  0  0
   13.7388   -7.8084   -2.5135 C   0  0  0  0  0  0  0  0  0  0  0  0
   14.1014   -8.0628   -3.5169 H   0  0  0  0  0  0  0  0  0  0  0  0
   12.7974   -7.2682   -2.6222 H   0  0  0  0  0  0  0  0  0  0  0  0
   14.7166   -6.8983   -1.8224 C   0  0  0  0  0  0  0  0  0  0  0  0
   15.9559   -7.3793   -1.3907 C   0  0  0  0  0  0  0  0  0  0  0  0
   16.2171   -8.4183   -1.5622 H   0  0  0  0  0  0  0  0  0  0  0  0
   16.8584   -6.5282   -0.7486 C   0  0  0  0  0  0  0  0  0  0  0  0
   17.8209   -6.9109   -0.4214 H   0  0  0  0  0  0  0  0  0  0  0  0
   16.5166   -5.1900   -0.5193 C   0  0  0  0  0  0  0  0  0  0  0  0
   17.2207   -4.5335   -0.0131 H   0  0  0  0  0  0  0  0  0  0  0  0
   15.2667   -4.6921   -0.9239 C   0  0  0  0  0  0  0  0  0  0  0  0
   14.8601   -3.2494   -0.6442 C   0  0  0  0  0  0  0  0  0  0  0  0
   15.4251   -2.2641   -1.6557 C   0  0  0  0  0  0  0  0  0  0  0  0
   15.9441   -2.6883   -2.8921 C   0  0  0  0  0  0  0  0  0  0  0  0
   15.9927   -3.7486   -3.1216 H   0  0  0  0  0  0  0  0  0  0  0  0
   16.3985   -1.7569   -3.8361 C   0  0  0  0  0  0  0  0  0  0  0  0
   16.8150   -2.0894   -4.7818 H   0  0  0  0  0  0  0  0  0  0  0  0
   16.3253   -0.3871   -3.5615 C   0  0  0  0  0  0  0  0  0  0  0  0
   16.6881    0.3387   -4.2848 H   0  0  0  0  0  0  0  0  0  0  0  0
   15.7990    0.0492   -2.3415 C   0  0  0  0  0  0  0  0  0  0  0  0
   15.7433    1.1099   -2.1098 H   0  0  0  0  0  0  0  0  0  0  0  0
   15.3465   -0.8844   -1.4026 C   0  0  0  0  0  0  0  0  0  0  0  0
   14.9231   -0.5383   -0.4636 H   0  0  0  0  0  0  0  0  0  0  0  0
   13.3325   -3.0420   -0.5600 C   0  0  0  0  0  0  0  0  0  0  0  0
   12.5014   -3.3134   -1.4253 O   0  0  0  0  0  0  0  0  0  0  0  0
   12.9820   -2.5157    0.6671 N   0  0  0  0  0  0  0  0  0  0  0  0
   11.6215   -2.2725    1.1780 C   0  0  0  0  0  0  0  0  0  0  0  0
   10.8683   -2.4406    0.3969 H   0  0  0  0  0  0  0  0  0  0  0  0
   11.4015   -2.9507    2.0132 H   0  0  0  0  0  0  0  0  0  0  0  0
   11.5026   -1.2396    1.5352 H   0  0  0  0  0  0  0  0  0  0  0  0
   14.1499   -2.4878    1.4049 C   0  0  0  0  0  0  0  0  0  0  0  0
   14.2928   -2.0860    2.6938 N   0  0  0  0  0  0  0  0  0  0  0  0
   13.4616   -1.8901    3.2500 H   0  0  0  0  0  0  0  0  0  0  0  0
   15.1697   -2.3159    3.1553 H   0  0  0  0  0  0  0  0  0  0  0  0
   15.1937   -2.8777    0.7439 N   0  0  0  0  0  4  0  0  0  0  0  0
   16.1481   -2.8149    1.0995 H   0  0  0  0  0  0  0  0  0  0  0  0
   14.3873   -5.5543   -1.6006 C   0  0  0  0  0  0  0  0  0  0  0  0
   13.4270   -5.1831   -1.9476 H   0  0  0  0  0  0  0  0  0  0  0  0
   12.4211   -9.9990    0.1232 C   0  0  0  0  0  0  0  0  0  0  0  0
   12.9796  -10.9102   -0.0656 H   0  0  0  0  0  0  0  0  0  0  0  0
   11.5041   -9.9335    1.1812 C   0  0  0  0  0  0  0  0  0  0  0  0
   11.3439  -10.7954    1.8213 H   0  0  0  0  0  0  0  0  0  0  0  0
  1  2  1  0
  2  3  2  0
  3  4  1  0
  3  5  1  0
  5  6  1  0
  5  7  2  0
  7  8  1  0
  8  9  1  0
  9 10  1  0
  9 11  1  0
  9 12  1  0
 12 13  2  0
 13 14  1  0
 13 15  1  0
 15 16  1  0
 15 17  2  0
 17 18  1  0
 17 19  1  0
 19 20  1  0
 20 21  1  0
 21 22  2  0
 22 23  1  0
 22 24  1  0
 24 25  1  0
 24 26  2  0
 26 27  1  0
 26 28  1  0
 28 29  1  0
 28 30  2  0
 30 31  1  0
 20 32  1  0
 32 33  2  0
 32 34  1  0
 34 35  1  0
 35 36  1  0
 35 37  1  0
 35 38  1  0
 34 39  1  0
 39 40  1  0
 40 41  1  0
 40 42  1  0
 39 43  2  0
 43 44  1  0
 19 45  2  0
 45 46  1  0
  7 47  1  0
 47 48  1  0
 47 49  2  0
 49 50  1  0
 49  2  1  0
 45 12  1  0
 43 20  1  0
 30 21  1  0
M  CHG  1  43   1
M  END
>  <score>  (219) 
5.57848

$$$$

     RDKit          3D

 50 52  0  0  0  0  0  0  0  0999 V2000
   16.0828   -8.4243   -1.6686 H   0  0  0  0  0  0  0  0  0  0  0  0
   15.8493   -7.3743   -1.5187 C   0  0  0  0  0  0  0  0  0  0  0  0
   16.7551   -6.5498   -0.8420 C   0  0  0  0  0  0  0  0  0  0  0  0
   17.6876   -6.9460   -0.4544 H   0  0  0  0  0  0  0  0  0  0  0  0
   16.4525   -5.2029   -0.6369 C   0  0  0  0  0  0  0  0  0  0  0  0
   17.1511   -4.5650   -0.1009 H   0  0  0  0  0  0  0  0  0  0  0  0
   15.2339   -4.6655   -1.0692 C   0  0  0  0  0  0  0  0  0  0  0  0
   14.8871   -3.2227   -0.7340 C   0  0  0  0  0  0  0  0  0  0  0  0
   15.4059   -2.2271   -1.7674 C   0  0  0  0  0  0  0  0  0  0  0  0
   15.9514   -2.6486   -2.9931 C   0  0  0  0  0  0  0  0  0  0  0  0
   16.0049   -3.7070   -3.2338 H   0  0  0  0  0  0  0  0  0  0  0  0
   16.4367   -1.7137   -3.9114 C   0  0  0  0  0  0  0  0  0  0  0  0
   16.8649   -2.0424   -4.8524 H   0  0  0  0  0  0  0  0  0  0  0  0
   16.3778   -0.3496   -3.6248 C   0  0  0  0  0  0  0  0  0  0  0  0
   16.7834    0.3516   -4.3513 H   0  0  0  0  0  0  0  0  0  0  0  0
   15.7979    0.1110   -2.4277 C   0  0  0  0  0  0  0  0  0  0  0  0
   15.7193    1.5598   -2.1361 C   0  0  0  0  0  0  0  0  0  0  0  0
   16.3783    2.3598   -2.7937 O   0  0  0  0  0  0  0  0  0  0  0  0
   14.9016    2.0427   -1.1246 N   0  0  0  0  0  0  0  0  0  0  0  0
   14.4274    1.3509   -0.5465 H   0  0  0  0  0  0  0  0  0  0  0  0
   14.8814    3.4479   -0.6904 C   0  0  0  0  0  0  0  0  0  0  0  0
   14.7741    4.1107   -1.5569 H   0  0  0  0  0  0  0  0  0  0  0  0
   15.8282    3.6884   -0.1995 H   0  0  0  0  0  0  0  0  0  0  0  0
   13.7323    3.7330    0.2844 C   0  0  0  0  0  0  0  0  0  0  0  0
   12.7896    3.7230   -0.2679 H   0  0  0  0  0  0  0  0  0  0  0  0
   13.6713    2.9378    1.0278 H   0  0  0  0  0  0  0  0  0  0  0  0
   13.8978    5.0081    0.9320 O   0  0  0  0  0  0  0  0  0  0  0  0
   14.5856    4.9453    2.1899 C   0  0  0  0  0  0  0  0  0  0  0  0
   14.5973    5.9361    2.6529 H   0  0  0  0  0  0  0  0  0  0  0  0
   15.6159    4.6122    2.0515 H   0  0  0  0  0  0  0  0  0  0  0  0
   14.0972    4.2489    2.8749 H   0  0  0  0  0  0  0  0  0  0  0  0
   15.3056   -0.8474   -1.5166 C   0  0  0  0  0  0  0  0  0  0  0  0
   14.8452   -0.5334   -0.5827 H   0  0  0  0  0  0  0  0  0  0  0  0
   13.3788   -3.0094   -0.5029 C   0  0  0  0  0  0  0  0  0  0  0  0
   12.4668   -3.1360   -1.3205 O   0  0  0  0  0  0  0  0  0  0  0  0
   13.1805   -2.6435    0.8124 N   0  0  0  0  0  0  0  0  0  0  0  0
   11.9158   -2.3087    1.4482 C   0  0  0  0  0  0  0  0  0  0  0  0
   11.9420   -2.5771    2.5108 H   0  0  0  0  0  0  0  0  0  0  0  0
   11.0894   -2.8536    0.9759 H   0  0  0  0  0  0  0  0  0  0  0  0
   11.7382   -1.2305    1.3673 H   0  0  0  0  0  0  0  0  0  0  0  0
   14.4021   -2.6445    1.4361 C   0  0  0  0  0  0  0  0  0  0  0  0
   14.5690   -2.4377    2.7738 N   0  0  0  0  0  0  0  0  0  0  0  0
   15.5156   -2.3579    3.1285 H   0  0  0  0  0  0  0  0  0  0  0  0
   13.8081   -1.9887    3.2761 H   0  0  0  0  0  0  0  0  0  0  0  0
   15.3774   -2.9124    0.6365 N   0  0  0  0  0  4  0  0  0  0  0  0
   16.2880   -3.2169    0.9887 H   0  0  0  0  0  0  0  0  0  0  0  0
   14.3384   -5.4936   -1.7730 C   0  0  0  0  0  0  0  0  0  0  0  0
   13.3917   -5.0947   -2.1238 H   0  0  0  0  0  0  0  0  0  0  0  0
   14.6436   -6.8443   -1.9924 C   0  0  0  0  0  0  0  0  0  0  0  0
   13.9311   -7.4805   -2.5114 H   0  0  0  0  0  0  0  0  0  0  0  0
  1  2  1  0
  2  3  2  0
  3  4  1  0
  3  5  1  0
  5  6  1  0
  5  7  2  0
  7  8  1  0
  8  9  1  0
  9 10  2  0
 10 11  1  0
 10 12  1  0
 12 13  1  0
 12 14  2  0
 14 15  1  0
 14 16  1  0
 16 17  1  0
 17 18  2  0
 17 19  1  0
 19 20  1  0
 19 21  1  0
 21 22  1  0
 21 23  1  0
 21 24  1  0
 24 25  1  0
 24 26  1  0
 24 27  1  0
 27 28  1  0
 28 29  1  0
 28 30  1  0
 28 31  1  0
 16 32  2  0
 32 33  1  0
  8 34  1  0
 34 35  2  0
 34 36  1  0
 36 37  1  0
 37 38  1  0
 37 39  1  0
 37 40  1  0
 36 41  1  0
 41 42  1  0
 42 43  1  0
 42 44  1  0
 41 45  2  0
 45 46  1  0
  7 47  1  0
 47 48  1  0
 47 49  2  0
 49 50  1  0
 49  2  1  0
 45  8  1  0
 32  9  1  0
M  CHG  1  45   1
M  END
>  <score>  (220) 
5.57415

$$$$

     RDKit          3D

 55 58  0  0  0  0  0  0  0  0999 V2000
   16.0956   -8.3997   -1.6832 H   0  0  0  0  0  0  0  0  0  0  0  0
   15.8713   -7.3505   -1.5116 C   0  0  0  0  0  0  0  0  0  0  0  0
   16.7791   -6.5417   -0.8186 C   0  0  0  0  0  0  0  0  0  0  0  0
   17.7140   -6.9577   -0.4530 H   0  0  0  0  0  0  0  0  0  0  0  0
   16.4798   -5.1944   -0.5830 C   0  0  0  0  0  0  0  0  0  0  0  0
   17.1858   -4.5771   -0.0353 H   0  0  0  0  0  0  0  0  0  0  0  0
   15.2656   -4.6404   -1.0211 C   0  0  0  0  0  0  0  0  0  0  0  0
   14.8912   -3.2008   -0.6927 C   0  0  0  0  0  0  0  0  0  0  0  0
   15.3889   -2.1645   -1.6982 C   0  0  0  0  0  0  0  0  0  0  0  0
   15.9223   -2.5368   -2.9440 C   0  0  0  0  0  0  0  0  0  0  0  0
   16.0078   -3.5881   -3.1953 H   0  0  0  0  0  0  0  0  0  0  0  0
   16.3395   -1.5697   -3.8676 C   0  0  0  0  0  0  0  0  0  0  0  0
   16.7732   -1.8749   -4.8175 H   0  0  0  0  0  0  0  0  0  0  0  0
   16.2007   -0.2116   -3.5675 C   0  0  0  0  0  0  0  0  0  0  0  0
   16.5382    0.5384   -4.2745 H   0  0  0  0  0  0  0  0  0  0  0  0
   15.6410    0.1966   -2.3489 C   0  0  0  0  0  0  0  0  0  0  0  0
   15.4703    1.5243   -2.0332 O   0  0  0  0  0  0  0  0  0  0  0  0
   15.1998    2.4217   -3.1308 C   0  0  0  0  0  0  0  0  0  0  0  0
   15.8331    2.1892   -3.9937 H   0  0  0  0  0  0  0  0  0  0  0  0
   15.4383    3.4473   -2.8264 H   0  0  0  0  0  0  0  0  0  0  0  0
   13.7174    2.3280   -3.5481 C   0  0  0  0  0  0  0  0  0  0  0  0
   13.4967    1.2893   -3.8230 H   0  0  0  0  0  0  0  0  0  0  0  0
   13.4191    3.2567   -4.7384 C   0  0  0  0  0  0  0  0  0  0  0  0
   14.0322    2.9621   -5.5979 H   0  0  0  0  0  0  0  0  0  0  0  0
   12.3666    3.1635   -5.0266 H   0  0  0  0  0  0  0  0  0  0  0  0
   13.6522    4.7195   -4.3352 C   0  0  0  0  0  0  0  0  0  0  0  0
   13.5123    5.3751   -5.1982 H   0  0  0  0  0  0  0  0  0  0  0  0
   14.6709    4.8750   -3.9758 H   0  0  0  0  0  0  0  0  0  0  0  0
   12.7135    5.0479   -3.2515 N   0  0  0  0  0  0  0  0  0  0  0  0
   11.7510    4.9902   -3.5790 H   0  0  0  0  0  0  0  0  0  0  0  0
   12.9137    4.2328   -2.0419 C   0  0  0  0  0  0  0  0  0  0  0  0
   12.1788    4.4958   -1.2708 H   0  0  0  0  0  0  0  0  0  0  0  0
   13.9113    4.4333   -1.6415 H   0  0  0  0  0  0  0  0  0  0  0  0
   12.7841    2.7481   -2.3993 C   0  0  0  0  0  0  0  0  0  0  0  0
   12.9860    2.1352   -1.5177 H   0  0  0  0  0  0  0  0  0  0  0  0
   11.7530    2.5697   -2.7082 H   0  0  0  0  0  0  0  0  0  0  0  0
   15.2554   -0.7864   -1.4252 C   0  0  0  0  0  0  0  0  0  0  0  0
   14.8369   -0.4482   -0.4818 H   0  0  0  0  0  0  0  0  0  0  0  0
   13.3716   -3.0339   -0.5164 C   0  0  0  0  0  0  0  0  0  0  0  0
   12.5004   -3.2319   -1.3618 O   0  0  0  0  0  0  0  0  0  0  0  0
   13.0994   -2.6332    0.7741 N   0  0  0  0  0  0  0  0  0  0  0  0
   11.7861   -2.2926    1.3207 C   0  0  0  0  0  0  0  0  0  0  0  0
   10.9960   -2.4789    0.5842 H   0  0  0  0  0  0  0  0  0  0  0  0
   11.5673   -2.8940    2.2096 H   0  0  0  0  0  0  0  0  0  0  0  0
   11.7498   -1.2334    1.5964 H   0  0  0  0  0  0  0  0  0  0  0  0
   14.3032   -2.5569    1.4372 C   0  0  0  0  0  0  0  0  0  0  0  0
   14.4805   -2.2046    2.7393 N   0  0  0  0  0  0  0  0  0  0  0  0
   15.4152   -2.2553    3.1391 H   0  0  0  0  0  0  0  0  0  0  0  0
   13.6673   -2.0872    3.3416 H   0  0  0  0  0  0  0  0  0  0  0  0
   15.3074   -2.8685    0.6853 N   0  0  0  0  0  4  0  0  0  0  0  0
   16.2611   -2.9795    1.0320 H   0  0  0  0  0  0  0  0  0  0  0  0
   14.3719   -5.4610   -1.7316 C   0  0  0  0  0  0  0  0  0  0  0  0
   13.4278   -5.0575   -2.0840 H   0  0  0  0  0  0  0  0  0  0  0  0
   14.6685   -6.8066   -1.9739 C   0  0  0  0  0  0  0  0  0  0  0  0
   13.9593   -7.4290   -2.5124 H   0  0  0  0  0  0  0  0  0  0  0  0
  1  2  1  0
  2  3  2  0
  3  4  1  0
  3  5  1  0
  5  6  1  0
  5  7  2  0
  7  8  1  0
  8  9  1  0
  9 10  2  0
 10 11  1  0
 10 12  1  0
 12 13  1  0
 12 14  2  0
 14 15  1  0
 14 16  1  0
 16 17  1  0
 17 18  1  0
 18 19  1  0
 18 20  1  0
 18 21  1  0
 21 22  1  0
 21 23  1  0
 23 24  1  0
 23 25  1  0
 23 26  1  0
 26 27  1  0
 26 28  1  0
 26 29  1  0
 29 30  1  0
 29 31  1  0
 31 32  1  0
 31 33  1  0
 31 34  1  0
 34 35  1  0
 34 36  1  0
 16 37  2  0
 37 38  1  0
  8 39  1  0
 39 40  2  0
 39 41  1  0
 41 42  1  0
 42 43  1  0
 42 44  1  0
 42 45  1  0
 41 46  1  0
 46 47  1  0
 47 48  1  0
 47 49  1  0
 46 50  2  0
 50 51  1  0
  7 52  1  0
 52 53  1  0
 52 54  2  0
 54 55  1  0
 54  2  1  0
 50  8  1  0
 37  9  1  0
 34 21  1  0
M  CHG  1  50   1
M  END
>  <score>  (221) 
5.57196

$$$$

     RDKit          3D

 47 49  0  0  0  0  0  0  0  0999 V2000
   16.0971   -8.4482   -1.6214 H   0  0  0  0  0  0  0  0  0  0  0  0
   15.8564   -7.3975   -1.4866 C   0  0  0  0  0  0  0  0  0  0  0  0
   16.7434   -6.5588   -0.8058 C   0  0  0  0  0  0  0  0  0  0  0  0
   17.6748   -6.9534   -0.4099 H   0  0  0  0  0  0  0  0  0  0  0  0
   16.4181   -5.2127   -0.6066 C   0  0  0  0  0  0  0  0  0  0  0  0
   17.0938   -4.5656   -0.0549 H   0  0  0  0  0  0  0  0  0  0  0  0
   15.2021   -4.6840   -1.0654 C   0  0  0  0  0  0  0  0  0  0  0  0
   14.8374   -3.2334   -0.7535 C   0  0  0  0  0  0  0  0  0  0  0  0
   15.3993   -2.2111   -1.7362 C   0  0  0  0  0  0  0  0  0  0  0  0
   15.9354   -2.5946   -2.9773 C   0  0  0  0  0  0  0  0  0  0  0  0
   15.9879   -3.6504   -3.2242 H   0  0  0  0  0  0  0  0  0  0  0  0
   16.3994   -1.6378   -3.8927 C   0  0  0  0  0  0  0  0  0  0  0  0
   16.8185   -1.9497   -4.8451 H   0  0  0  0  0  0  0  0  0  0  0  0
   16.3220   -0.2791   -3.5733 C   0  0  0  0  0  0  0  0  0  0  0  0
   16.6734    0.4890   -4.2527 H   0  0  0  0  0  0  0  0  0  0  0  0
   15.8012    0.1123   -2.3510 C   0  0  0  0  0  0  0  0  0  0  0  0
   15.7145    1.4573   -2.0704 N   0  0  0  0  0  0  0  0  0  0  0  0
   15.6890    2.1262   -2.8258 H   0  0  0  0  0  0  0  0  0  0  0  0
   15.6779    1.9805   -0.8153 C   0  0  0  0  0  0  0  0  0  0  0  0
   16.1285    1.3592    0.1430 O   0  0  0  0  0  0  0  0  0  0  0  0
   15.1680    3.2284   -0.7968 O   0  0  0  0  0  0  0  0  0  0  0  0
   15.1675    3.8473    0.4883 C   0  0  0  0  0  0  0  0  0  0  0  0
   14.6523    3.2153    1.2229 H   0  0  0  0  0  0  0  0  0  0  0  0
   14.6602    4.8207    0.4505 H   0  0  0  0  0  0  0  0  0  0  0  0
   16.6237    4.0332    0.8682 C   0  0  0  0  0  0  0  0  0  0  0  0
   17.1370    4.5504    0.0602 H   0  0  0  0  0  0  0  0  0  0  0  0
   16.7219    4.5907    1.7963 H   0  0  0  0  0  0  0  0  0  0  0  0
   17.1064    3.0685    1.0021 H   0  0  0  0  0  0  0  0  0  0  0  0
   15.3387   -0.8364   -1.4409 C   0  0  0  0  0  0  0  0  0  0  0  0
   14.9217   -0.4816   -0.5026 H   0  0  0  0  0  0  0  0  0  0  0  0
   13.3181   -3.0302   -0.5915 C   0  0  0  0  0  0  0  0  0  0  0  0
   12.4581   -3.1409   -1.4652 O   0  0  0  0  0  0  0  0  0  0  0  0
   13.0378   -2.6782    0.7146 N   0  0  0  0  0  0  0  0  0  0  0  0
   11.7341   -2.3139    1.2741 C   0  0  0  0  0  0  0  0  0  0  0  0
   10.9305   -2.4773    0.5472 H   0  0  0  0  0  0  0  0  0  0  0  0
   11.5092   -2.9155    2.1624 H   0  0  0  0  0  0  0  0  0  0  0  0
   11.7211   -1.2563    1.5597 H   0  0  0  0  0  0  0  0  0  0  0  0
   14.2444   -2.6201    1.3792 C   0  0  0  0  0  0  0  0  0  0  0  0
   14.4175   -2.2955    2.6879 N   0  0  0  0  0  0  0  0  0  0  0  0
   15.3572   -2.3131    3.0826 H   0  0  0  0  0  0  0  0  0  0  0  0
   13.6057   -2.1126    3.2730 H   0  0  0  0  0  0  0  0  0  0  0  0
   15.2498   -2.9168    0.6285 N   0  0  0  0  0  4  0  0  0  0  0  0
   16.2169   -2.9656    0.9584 H   0  0  0  0  0  0  0  0  0  0  0  0
   14.3227   -5.5363   -1.7613 C   0  0  0  0  0  0  0  0  0  0  0  0
   13.3678   -5.1579   -2.1142 H   0  0  0  0  0  0  0  0  0  0  0  0
   14.6488   -6.8851   -1.9713 C   0  0  0  0  0  0  0  0  0  0  0  0
   13.9560   -7.5455   -2.4855 H   0  0  0  0  0  0  0  0  0  0  0  0
  1  2  1  0
  2  3  2  0
  3  4  1  0
  3  5  1  0
  5  6  1  0
  5  7  2  0
  7  8  1  0
  8  9  1  0
  9 10  2  0
 10 11  1  0
 10 12  1  0
 12 13  1  0
 12 14  2  0
 14 15  1  0
 14 16  1  0
 16 17  1  0
 17 18  1  0
 17 19  1  0
 19 20  2  0
 19 21  1  0
 21 22  1  0
 22 23  1  0
 22 24  1  0
 22 25  1  0
 25 26  1  0
 25 27  1  0
 25 28  1  0
 16 29  2  0
 29 30  1  0
  8 31  1  0
 31 32  2  0
 31 33  1  0
 33 34  1  0
 34 35  1  0
 34 36  1  0
 34 37  1  0
 33 38  1  0
 38 39  1  0
 39 40  1  0
 39 41  1  0
 38 42  2  0
 42 43  1  0
  7 44  1  0
 44 45  1  0
 44 46  2  0
 46 47  1  0
 46  2  1  0
 42  8  1  0
 29  9  1  0
M  CHG  1  42   1
M  END
>  <score>  (222) 
5.56974

$$$$

     RDKit          3D

 48 51  0  0  0  0  0  0  0  0999 V2000
    9.7017   -7.8058   -0.3294 H   0  0  0  0  0  0  0  0  0  0  0  0
   10.6487   -8.3047   -0.5128 C   0  0  0  0  0  0  0  0  0  0  0  0
   10.8919   -9.4394    0.1559 N   0  0  0  0  0  0  0  0  0  0  0  0
   12.0643  -10.0554   -0.0560 C   0  0  0  0  0  0  0  0  0  0  0  0
   12.2774  -10.9688    0.4887 H   0  0  0  0  0  0  0  0  0  0  0  0
   13.0269   -9.5603   -0.9398 C   0  0  0  0  0  0  0  0  0  0  0  0
   13.9571  -10.0968   -1.0734 H   0  0  0  0  0  0  0  0  0  0  0  0
   12.8022   -8.3712   -1.6262 C   0  0  0  0  0  0  0  0  0  0  0  0
   13.8670   -7.7920   -2.5293 C   0  0  0  0  0  0  0  0  0  0  0  0
   13.4148   -7.1913   -3.3110 H   0  0  0  0  0  0  0  0  0  0  0  0
   14.4318   -8.5970   -3.0105 H   0  0  0  0  0  0  0  0  0  0  0  0
   14.7973   -6.8835   -1.7840 C   0  0  0  0  0  0  0  0  0  0  0  0
   16.0270   -7.3491   -1.3095 C   0  0  0  0  0  0  0  0  0  0  0  0
   16.2940   -8.3885   -1.4544 H   0  0  0  0  0  0  0  0  0  0  0  0
   16.9180   -6.4811   -0.6710 C   0  0  0  0  0  0  0  0  0  0  0  0
   17.8798   -6.8440   -0.3128 H   0  0  0  0  0  0  0  0  0  0  0  0
   16.5686   -5.1396   -0.4956 C   0  0  0  0  0  0  0  0  0  0  0  0
   17.2695   -4.4733    0.0013 H   0  0  0  0  0  0  0  0  0  0  0  0
   15.3166   -4.6679   -0.9327 C   0  0  0  0  0  0  0  0  0  0  0  0
   14.8828   -3.2392   -0.7013 C   0  0  0  0  0  0  0  0  0  0  0  0
   15.4069   -2.2602   -1.7378 C   0  0  0  0  0  0  0  0  0  0  0  0
   15.9343   -2.6789   -2.9725 C   0  0  0  0  0  0  0  0  0  0  0  0
   15.9850   -3.7371   -3.2177 H   0  0  0  0  0  0  0  0  0  0  0  0
   16.4027   -1.7336   -3.8925 C   0  0  0  0  0  0  0  0  0  0  0  0
   16.8136   -2.0563   -4.8408 H   0  0  0  0  0  0  0  0  0  0  0  0
   16.3488   -0.3683   -3.5981 C   0  0  0  0  0  0  0  0  0  0  0  0
   16.7348    0.3584   -4.3067 H   0  0  0  0  0  0  0  0  0  0  0  0
   15.7938    0.0569   -2.3898 C   0  0  0  0  0  0  0  0  0  0  0  0
   15.7345    1.1148   -2.1553 H   0  0  0  0  0  0  0  0  0  0  0  0
   15.3173   -0.8839   -1.4753 C   0  0  0  0  0  0  0  0  0  0  0  0
   14.8756   -0.5467   -0.5419 H   0  0  0  0  0  0  0  0  0  0  0  0
   13.3566   -3.0838   -0.5448 C   0  0  0  0  0  0  0  0  0  0  0  0
   12.5003   -3.2566   -1.4119 O   0  0  0  0  0  0  0  0  0  0  0  0
   13.0677   -2.6893    0.7458 N   0  0  0  0  0  0  0  0  0  0  0  0
   11.7596   -2.3180    1.2895 C   0  0  0  0  0  0  0  0  0  0  0  0
   11.5268   -2.9064    2.1843 H   0  0  0  0  0  0  0  0  0  0  0  0
   10.9597   -2.4851    0.5581 H   0  0  0  0  0  0  0  0  0  0  0  0
   11.7546   -1.2582    1.5662 H   0  0  0  0  0  0  0  0  0  0  0  0
   14.2708   -2.5780    1.4058 C   0  0  0  0  0  0  0  0  0  0  0  0
   14.4516   -2.2169    2.7045 N   0  0  0  0  0  0  0  0  0  0  0  0
   13.6392   -2.1161    3.3098 H   0  0  0  0  0  0  0  0  0  0  0  0
   15.3884   -2.2775    3.0996 H   0  0  0  0  0  0  0  0  0  0  0  0
   15.2822   -2.8645    0.6629 N   0  0  0  0  0  4  0  0  0  0  0  0
   16.2225   -3.0146    1.0299 H   0  0  0  0  0  0  0  0  0  0  0  0
   14.4469   -5.5463   -1.5842 C   0  0  0  0  0  0  0  0  0  0  0  0
   13.4917   -5.1722   -1.9422 H   0  0  0  0  0  0  0  0  0  0  0  0
   11.5693   -7.7471   -1.4088 C   0  0  0  0  0  0  0  0  0  0  0  0
   11.3077   -6.8229   -1.9063 H   0  0  0  0  0  0  0  0  0  0  0  0
  1  2  1  0
  2  3  2  0
  3  4  1  0
  4  5  1  0
  4  6  2  0
  6  7  1  0
  6  8  1  0
  8  9  1  0
  9 10  1  0
  9 11  1  0
  9 12  1  0
 12 13  2  0
 13 14  1  0
 13 15  1  0
 15 16  1  0
 15 17  2  0
 17 18  1  0
 17 19  1  0
 19 20  1  0
 20 21  1  0
 21 22  2  0
 22 23  1  0
 22 24  1  0
 24 25  1  0
 24 26  2  0
 26 27  1  0
 26 28  1  0
 28 29  1  0
 28 30  2  0
 30 31  1  0
 20 32  1  0
 32 33  2  0
 32 34  1  0
 34 35  1  0
 35 36  1  0
 35 37  1  0
 35 38  1  0
 34 39  1  0
 39 40  1  0
 40 41  1  0
 40 42  1  0
 39 43  2  0
 43 44  1  0
 19 45  2  0
 45 46  1  0
  8 47  2  0
 47 48  1  0
 47  2  1  0
 45 12  1  0
 43 20  1  0
 30 21  1  0
M  CHG  1  43   1
M  END
>  <score>  (223) 
5.56728

$$$$

     RDKit          3D

 46 49  0  0  0  0  0  0  0  0999 V2000
   16.1147   -8.4496   -1.6739 H   0  0  0  0  0  0  0  0  0  0  0  0
   15.8712   -7.4076   -1.4946 C   0  0  0  0  0  0  0  0  0  0  0  0
   16.7658   -6.5859   -0.8007 C   0  0  0  0  0  0  0  0  0  0  0  0
   17.7115   -6.9823   -0.4456 H   0  0  0  0  0  0  0  0  0  0  0  0
   16.4427   -5.2474   -0.5571 C   0  0  0  0  0  0  0  0  0  0  0  0
   17.1429   -4.6102   -0.0223 H   0  0  0  0  0  0  0  0  0  0  0  0
   15.2148   -4.7231   -0.9916 C   0  0  0  0  0  0  0  0  0  0  0  0
   14.8328   -3.2786   -0.7168 C   0  0  0  0  0  0  0  0  0  0  0  0
   15.2809   -2.3370   -1.8222 C   0  0  0  0  0  0  0  0  0  0  0  0
   16.0141   -2.7738   -2.9408 C   0  0  0  0  0  0  0  0  0  0  0  0
   16.2945   -3.8217   -3.0278 H   0  0  0  0  0  0  0  0  0  0  0  0
   16.3703   -1.8742   -3.9560 C   0  0  0  0  0  0  0  0  0  0  0  0
   16.9761   -2.2033   -4.7922 H   0  0  0  0  0  0  0  0  0  0  0  0
   15.9307   -0.5479   -3.9047 C   0  0  0  0  0  0  0  0  0  0  0  0
   16.1777    0.1515   -4.7003 H   0  0  0  0  0  0  0  0  0  0  0  0
   15.1639   -0.1182   -2.8206 C   0  0  0  0  0  0  0  0  0  0  0  0
   14.6864    1.2931   -2.7262 C   0  0  0  0  0  0  0  0  0  0  0  0
   14.5429    1.7232   -3.7168 H   0  0  0  0  0  0  0  0  0  0  0  0
   13.7264    1.3057   -2.2087 H   0  0  0  0  0  0  0  0  0  0  0  0
   15.7152    2.0628   -1.9680 C   0  0  0  0  0  0  0  0  0  0  0  0
   15.5801    2.5264   -0.6685 N   0  0  0  0  0  0  0  0  0  0  0  0
   16.7709    2.9474   -0.3231 C   0  0  0  0  0  0  0  0  0  0  0  0
   17.0425    3.3246    0.6571 H   0  0  0  0  0  0  0  0  0  0  0  0
   17.6659    2.8109   -1.3652 N   0  0  0  0  0  0  0  0  0  0  0  0
   18.6722    2.9422   -1.2933 H   0  0  0  0  0  0  0  0  0  0  0  0
   16.9807    2.2743   -2.4287 C   0  0  0  0  0  0  0  0  0  0  0  0
   17.3557    1.9899   -3.4049 H   0  0  0  0  0  0  0  0  0  0  0  0
   14.8666   -0.9981   -1.7803 C   0  0  0  0  0  0  0  0  0  0  0  0
   14.2875   -0.6311   -0.9356 H   0  0  0  0  0  0  0  0  0  0  0  0
   13.3164   -3.1079   -0.5129 C   0  0  0  0  0  0  0  0  0  0  0  0
   12.4312   -3.2592   -1.3579 O   0  0  0  0  0  0  0  0  0  0  0  0
   13.0716   -2.6679    0.7663 N   0  0  0  0  0  0  0  0  0  0  0  0
   11.7674   -2.3017    1.3149 C   0  0  0  0  0  0  0  0  0  0  0  0
   11.7468   -1.2409    1.5866 H   0  0  0  0  0  0  0  0  0  0  0  0
   10.9769   -2.4774    0.5750 H   0  0  0  0  0  0  0  0  0  0  0  0
   11.5403   -2.8998    2.2033 H   0  0  0  0  0  0  0  0  0  0  0  0
   14.2907   -2.5588    1.4034 C   0  0  0  0  0  0  0  0  0  0  0  0
   14.4636   -2.2193    2.7107 N   0  0  0  0  0  0  0  0  0  0  0  0
   15.3972   -2.2658    3.1188 H   0  0  0  0  0  0  0  0  0  0  0  0
   13.6478   -2.0994    3.3098 H   0  0  0  0  0  0  0  0  0  0  0  0
   15.2855   -2.8472    0.6238 N   0  0  0  0  0  4  0  0  0  0  0  0
   16.2462   -2.9501    0.9564 H   0  0  0  0  0  0  0  0  0  0  0  0
   14.3409   -5.5476   -1.7179 C   0  0  0  0  0  0  0  0  0  0  0  0
   13.4027   -5.1431   -2.0875 H   0  0  0  0  0  0  0  0  0  0  0  0
   14.6625   -6.8842   -1.9624 C   0  0  0  0  0  0  0  0  0  0  0  0
   13.9674   -7.5096   -2.5127 H   0  0  0  0  0  0  0  0  0  0  0  0
  1  2  1  0
  2  3  2  0
  3  4  1  0
  3  5  1  0
  5  6  1  0
  5  7  2  0
  7  8  1  0
  8  9  1  0
  9 10  2  0
 10 11  1  0
 10 12  1  0
 12 13  1  0
 12 14  2  0
 14 15  1  0
 14 16  1  0
 16 17  1  0
 17 18  1  0
 17 19  1  0
 17 20  1  0
 20 21  1  0
 21 22  2  0
 22 23  1  0
 22 24  1  0
 24 25  1  0
 24 26  1  0
 26 27  1  0
 16 28  2  0
 28 29  1  0
  8 30  1  0
 30 31  2  0
 30 32  1  0
 32 33  1  0
 33 34  1  0
 33 35  1  0
 33 36  1  0
 32 37  1  0
 37 38  1  0
 38 39  1  0
 38 40  1  0
 37 41  2  0
 41 42  1  0
  7 43  1  0
 43 44  1  0
 43 45  2  0
 45 46  1  0
 45  2  1  0
 41  8  1  0
 28  9  1  0
 26 20  2  0
M  CHG  1  41   1
M  END
>  <score>  (224) 
5.56553

$$$$

     RDKit          3D

 54 57  0  0  0  0  0  0  0  0999 V2000
   16.1401   -8.5820   -1.7958 H   0  0  0  0  0  0  0  0  0  0  0  0
   15.8802   -7.5517   -1.5679 C   0  0  0  0  0  0  0  0  0  0  0  0
   16.7748   -6.7530   -0.8498 C   0  0  0  0  0  0  0  0  0  0  0  0
   17.7291   -7.1518   -0.5192 H   0  0  0  0  0  0  0  0  0  0  0  0
   16.4433   -5.4299   -0.5452 C   0  0  0  0  0  0  0  0  0  0  0  0
   17.1475   -4.8131    0.0055 H   0  0  0  0  0  0  0  0  0  0  0  0
   15.2136   -4.8800   -0.9399 C   0  0  0  0  0  0  0  0  0  0  0  0
   14.9015   -3.4191   -0.6227 C   0  0  0  0  0  0  0  0  0  0  0  0
   15.5383   -2.4784   -1.6386 C   0  0  0  0  0  0  0  0  0  0  0  0
   15.8556   -2.9281   -2.9268 C   0  0  0  0  0  0  0  0  0  0  0  0
   15.6531   -3.9592   -3.2000 H   0  0  0  0  0  0  0  0  0  0  0  0
   16.4034   -2.0594   -3.8693 C   0  0  0  0  0  0  0  0  0  0  0  0
   16.6250   -2.4249   -4.8629 H   0  0  0  0  0  0  0  0  0  0  0  0
   16.6301   -0.7191   -3.5474 C   0  0  0  0  0  0  0  0  0  0  0  0
   17.0427   -0.0573   -4.3015 H   0  0  0  0  0  0  0  0  0  0  0  0
   16.2922   -0.2253   -2.2767 C   0  0  0  0  0  0  0  0  0  0  0  0
   16.3269    1.2187   -1.9662 C   0  0  0  0  0  0  0  0  0  0  0  0
   16.4474    2.1753   -2.9957 C   0  0  0  0  0  0  0  0  0  0  0  0
   16.6745    1.8888   -4.0212 H   0  0  0  0  0  0  0  0  0  0  0  0
   16.1683    3.5159   -2.7167 C   0  0  0  0  0  0  0  0  0  0  0  0
   16.1305    4.2937   -3.4579 H   0  0  0  0  0  0  0  0  0  0  0  0
   15.7965    3.9269   -1.4539 C   0  0  0  0  0  0  0  0  0  0  0  0
   15.2072    5.1797   -1.3372 N   0  0  0  0  0  0  0  0  0  0  0  0
   14.0203    5.3513   -2.2088 C   0  0  0  0  0  0  0  0  0  0  0  0
   14.3067    5.8537   -3.1378 H   0  0  0  0  0  0  0  0  0  0  0  0
   13.6073    4.3684   -2.4745 H   0  0  0  0  0  0  0  0  0  0  0  0
   13.2244    5.9281   -1.7208 H   0  0  0  0  0  0  0  0  0  0  0  0
   15.2620    5.8714   -0.0449 C   0  0  0  0  0  0  0  0  0  0  0  0
   16.0802    5.5009    0.5819 H   0  0  0  0  0  0  0  0  0  0  0  0
   14.3184    5.7387    0.4924 H   0  0  0  0  0  0  0  0  0  0  0  0
   15.4452    6.9318   -0.2172 H   0  0  0  0  0  0  0  0  0  0  0  0
   15.8222    3.0251   -0.4001 C   0  0  0  0  0  0  0  0  0  0  0  0
   15.5617    3.3849    0.5872 H   0  0  0  0  0  0  0  0  0  0  0  0
   16.0802    1.6707   -0.6499 C   0  0  0  0  0  0  0  0  0  0  0  0
   16.0163    0.9654    0.1759 H   0  0  0  0  0  0  0  0  0  0  0  0
   15.7599   -1.1234   -1.3348 C   0  0  0  0  0  0  0  0  0  0  0  0
   15.4836   -0.7449   -0.3560 H   0  0  0  0  0  0  0  0  0  0  0  0
   13.3984   -3.1175   -0.4379 C   0  0  0  0  0  0  0  0  0  0  0  0
   12.4949   -3.2751   -1.2581 O   0  0  0  0  0  0  0  0  0  0  0  0
   13.1654   -2.6605    0.8431 N   0  0  0  0  0  0  0  0  0  0  0  0
   11.8815   -2.2773    1.4358 C   0  0  0  0  0  0  0  0  0  0  0  0
   11.0548   -2.8039    0.9471 H   0  0  0  0  0  0  0  0  0  0  0  0
   11.7136   -1.1992    1.3354 H   0  0  0  0  0  0  0  0  0  0  0  0
   11.8599   -2.5307    2.5020 H   0  0  0  0  0  0  0  0  0  0  0  0
   14.3718   -2.6890    1.4965 C   0  0  0  0  0  0  0  0  0  0  0  0
   14.5771   -2.3821    2.8067 N   0  0  0  0  0  0  0  0  0  0  0  0
   13.8546   -1.8922    3.3246 H   0  0  0  0  0  0  0  0  0  0  0  0
   15.5467   -2.2763    3.0867 H   0  0  0  0  0  0  0  0  0  0  0  0
   15.3427   -3.0916    0.7455 N   0  0  0  0  0  4  0  0  0  0  0  0
   16.2987   -3.2300    1.0754 H   0  0  0  0  0  0  0  0  0  0  0  0
   14.3253   -5.6875   -1.6766 C   0  0  0  0  0  0  0  0  0  0  0  0
   13.3740   -5.2857   -2.0139 H   0  0  0  0  0  0  0  0  0  0  0  0
   14.6566   -7.0158   -1.9873 C   0  0  0  0  0  0  0  0  0  0  0  0
   13.9629   -7.6334   -2.5512 H   0  0  0  0  0  0  0  0  0  0  0  0
  1  2  1  0
  2  3  2  0
  3  4  1  0
  3  5  1  0
  5  6  1  0
  5  7  2  0
  7  8  1  0
  8  9  1  0
  9 10  2  0
 10 11  1  0
 10 12  1  0
 12 13  1  0
 12 14  2  0
 14 15  1  0
 14 16  1  0
 16 17  1  0
 17 18  2  0
 18 19  1  0
 18 20  1  0
 20 21  1  0
 20 22  2  0
 22 23  1  0
 23 24  1  0
 24 25  1  0
 24 26  1  0
 24 27  1  0
 23 28  1  0
 28 29  1  0
 28 30  1  0
 28 31  1  0
 22 32  1  0
 32 33  1  0
 32 34  2  0
 34 35  1  0
 16 36  2  0
 36 37  1  0
  8 38  1  0
 38 39  2  0
 38 40  1  0
 40 41  1  0
 41 42  1  0
 41 43  1  0
 41 44  1  0
 40 45  1  0
 45 46  1  0
 46 47  1  0
 46 48  1  0
 45 49  2  0
 49 50  1  0
  7 51  1  0
 51 52  1  0
 51 53  2  0
 53 54  1  0
 53  2  1  0
 49  8  1  0
 36  9  1  0
 34 17  1  0
M  CHG  1  49   1
M  END
>  <score>  (225) 
5.56457

$$$$

     RDKit          3D

 48 51  0  0  0  0  0  0  0  0999 V2000
   16.0745   -8.3425   -1.6471 H   0  0  0  0  0  0  0  0  0  0  0  0
   15.8517   -7.2923   -1.4888 C   0  0  0  0  0  0  0  0  0  0  0  0
   16.7632   -6.4771   -0.8078 C   0  0  0  0  0  0  0  0  0  0  0  0
   17.6997   -6.8844   -0.4388 H   0  0  0  0  0  0  0  0  0  0  0  0
   16.4679   -5.1288   -0.5917 C   0  0  0  0  0  0  0  0  0  0  0  0
   17.1762   -4.4980   -0.0607 H   0  0  0  0  0  0  0  0  0  0  0  0
   15.2515   -4.5870   -1.0337 C   0  0  0  0  0  0  0  0  0  0  0  0
   14.8883   -3.1440   -0.7337 C   0  0  0  0  0  0  0  0  0  0  0  0
   15.4046   -2.1667   -1.7845 C   0  0  0  0  0  0  0  0  0  0  0  0
   15.9235   -2.5816   -3.0261 C   0  0  0  0  0  0  0  0  0  0  0  0
   16.0129   -3.6427   -3.2448 H   0  0  0  0  0  0  0  0  0  0  0  0
   16.3250   -1.6420   -3.9921 C   0  0  0  0  0  0  0  0  0  0  0  0
   16.7370   -1.9697   -4.9453 H   0  0  0  0  0  0  0  0  0  0  0  0
   16.2177   -0.2707   -3.7129 C   0  0  0  0  0  0  0  0  0  0  0  0
   16.5486    0.4769   -4.4239 H   0  0  0  0  0  0  0  0  0  0  0  0
   15.7305    0.1543   -2.4793 C   0  0  0  0  0  0  0  0  0  0  0  0
   15.7322    1.4896   -2.1108 N   0  0  0  0  0  0  0  0  0  0  0  0
   15.8735    1.6668   -1.1212 H   0  0  0  0  0  0  0  0  0  0  0  0
   15.1432    2.5310   -2.8077 C   0  0  0  0  0  0  0  0  0  0  0  0
   15.5109    3.8048   -2.4020 C   0  0  0  0  0  0  0  0  0  0  0  0
   16.2679    3.8933   -1.6309 H   0  0  0  0  0  0  0  0  0  0  0  0
   14.9428    4.9300   -3.0063 C   0  0  0  0  0  0  0  0  0  0  0  0
   15.2601    5.9179   -2.6993 H   0  0  0  0  0  0  0  0  0  0  0  0
   13.9958    4.7757   -4.0272 C   0  0  0  0  0  0  0  0  0  0  0  0
   13.2943    6.1389   -4.8658 Cl  0  0  0  0  0  0  0  0  0  0  0  0
   13.6304    3.4906   -4.4326 C   0  0  0  0  0  0  0  0  0  0  0  0
   12.9158    3.3695   -5.2404 H   0  0  0  0  0  0  0  0  0  0  0  0
   14.2005    2.3633   -3.8260 C   0  0  0  0  0  0  0  0  0  0  0  0
   13.9229    1.3605   -4.1286 H   0  0  0  0  0  0  0  0  0  0  0  0
   15.3171   -0.7859   -1.5398 C   0  0  0  0  0  0  0  0  0  0  0  0
   14.9189   -0.4305   -0.5974 H   0  0  0  0  0  0  0  0  0  0  0  0
   13.3710   -2.9511   -0.5574 C   0  0  0  0  0  0  0  0  0  0  0  0
   12.4955   -3.1405   -1.3999 O   0  0  0  0  0  0  0  0  0  0  0  0
   13.0995   -2.5787    0.7421 N   0  0  0  0  0  0  0  0  0  0  0  0
   11.7800   -2.2857    1.3049 C   0  0  0  0  0  0  0  0  0  0  0  0
   11.5868   -2.9086    2.1849 H   0  0  0  0  0  0  0  0  0  0  0  0
   10.9900   -2.4823    0.5703 H   0  0  0  0  0  0  0  0  0  0  0  0
   11.7137   -1.2327    1.5992 H   0  0  0  0  0  0  0  0  0  0  0  0
   14.3009   -2.5347    1.4123 C   0  0  0  0  0  0  0  0  0  0  0  0
   14.4651   -2.2868    2.7417 N   0  0  0  0  0  0  0  0  0  0  0  0
   13.6522   -2.0908    3.3262 H   0  0  0  0  0  0  0  0  0  0  0  0
   15.4045   -2.2438    3.1310 H   0  0  0  0  0  0  0  0  0  0  0  0
   15.3115   -2.7897    0.6402 N   0  0  0  0  0  4  0  0  0  0  0  0
   16.2616   -2.9150    0.9888 H   0  0  0  0  0  0  0  0  0  0  0  0
   14.3593   -5.4043   -1.7453 C   0  0  0  0  0  0  0  0  0  0  0  0
   13.4256   -4.9905   -2.1151 H   0  0  0  0  0  0  0  0  0  0  0  0
   14.6526   -6.7516   -1.9654 C   0  0  0  0  0  0  0  0  0  0  0  0
   13.9430   -7.3734   -2.5020 H   0  0  0  0  0  0  0  0  0  0  0  0
  1  2  1  0
  2  3  2  0
  3  4  1  0
  3  5  1  0
  5  6  1  0
  5  7  2  0
  7  8  1  0
  8  9  1  0
  9 10  2  0
 10 11  1  0
 10 12  1  0
 12 13  1  0
 12 14  2  0
 14 15  1  0
 14 16  1  0
 16 17  1  0
 17 18  1  0
 17 19  1  0
 19 20  2  0
 20 21  1  0
 20 22  1  0
 22 23  1  0
 22 24  2  0
 24 25  1  0
 24 26  1  0
 26 27  1  0
 26 28  2  0
 28 29  1  0
 16 30  2  0
 30 31  1  0
  8 32  1  0
 32 33  2  0
 32 34  1  0
 34 35  1  0
 35 36  1  0
 35 37  1  0
 35 38  1  0
 34 39  1  0
 39 40  1  0
 40 41  1  0
 40 42  1  0
 39 43  2  0
 43 44  1  0
  7 45  1  0
 45 46  1  0
 45 47  2  0
 47 48  1  0
 47  2  1  0
 43  8  1  0
 30  9  1  0
 28 19  1  0
M  CHG  1  43   1
M  END
>  <score>  (226) 
5.56437

$$$$

     RDKit          3D

 50 53  0  0  0  0  0  0  0  0999 V2000
   10.4216   -8.8591    2.1051 H   0  0  0  0  0  0  0  0  0  0  0  0
   10.5996   -8.0941    1.3627 C   0  0  0  0  0  0  0  0  0  0  0  0
    9.8823   -6.9614    1.4331 N   0  0  0  0  0  0  0  0  0  0  0  0
   10.0628   -6.0493    0.4672 C   0  0  0  0  0  0  0  0  0  0  0  0
    9.4663   -5.1443    0.4812 H   0  0  0  0  0  0  0  0  0  0  0  0
   10.9554   -6.2331   -0.5942 C   0  0  0  0  0  0  0  0  0  0  0  0
   11.0440   -5.4716   -1.3620 H   0  0  0  0  0  0  0  0  0  0  0  0
   11.7079   -7.4106   -0.6784 C   0  0  0  0  0  0  0  0  0  0  0  0
   12.6056   -7.6925   -1.8650 C   0  0  0  0  0  0  0  0  0  0  0  0
   12.1790   -8.5402   -2.4080 H   0  0  0  0  0  0  0  0  0  0  0  0
   12.5790   -6.8391   -2.5408 H   0  0  0  0  0  0  0  0  0  0  0  0
   14.0164   -7.9803   -1.5264 N   0  0  0  0  0  0  0  0  0  0  0  0
   14.3797   -8.9040   -1.7388 H   0  0  0  0  0  0  0  0  0  0  0  0
   14.9413   -6.9886   -1.2132 C   0  0  0  0  0  0  0  0  0  0  0  0
   16.2766   -7.3221   -0.9982 C   0  0  0  0  0  0  0  0  0  0  0  0
   16.5664   -8.3660   -1.0518 H   0  0  0  0  0  0  0  0  0  0  0  0
   17.2171   -6.3250   -0.7063 C   0  0  0  0  0  0  0  0  0  0  0  0
   18.2561   -6.5821   -0.5289 H   0  0  0  0  0  0  0  0  0  0  0  0
   16.8118   -4.9878   -0.6020 C   0  0  0  0  0  0  0  0  0  0  0  0
   17.5312   -4.2155   -0.3403 H   0  0  0  0  0  0  0  0  0  0  0  0
   15.4643   -4.6451   -0.7714 C   0  0  0  0  0  0  0  0  0  0  0  0
   15.0099   -3.2113   -0.5629 C   0  0  0  0  0  0  0  0  0  0  0  0
   15.4910   -2.2412   -1.6353 C   0  0  0  0  0  0  0  0  0  0  0  0
   15.9826   -2.6756   -2.8802 C   0  0  0  0  0  0  0  0  0  0  0  0
   16.0412   -3.7385   -3.0892 H   0  0  0  0  0  0  0  0  0  0  0  0
   16.4047   -1.7539   -3.8512 C   0  0  0  0  0  0  0  0  0  0  0  0
   16.7931   -2.0963   -4.8059 H   0  0  0  0  0  0  0  0  0  0  0  0
   16.3279   -0.3820   -3.5952 C   0  0  0  0  0  0  0  0  0  0  0  0
   16.6593    0.3335   -4.3441 H   0  0  0  0  0  0  0  0  0  0  0  0
   15.8155    0.0636   -2.3737 C   0  0  0  0  0  0  0  0  0  0  0  0
   15.7436    1.1284   -2.1743 H   0  0  0  0  0  0  0  0  0  0  0  0
   15.3981   -0.8581   -1.4070 C   0  0  0  0  0  0  0  0  0  0  0  0
   15.0048   -0.4946   -0.4614 H   0  0  0  0  0  0  0  0  0  0  0  0
   13.4827   -3.1238   -0.4104 C   0  0  0  0  0  0  0  0  0  0  0  0
   12.6313   -3.4872   -1.2167 O   0  0  0  0  0  0  0  0  0  0  0  0
   13.1716   -2.6288    0.8397 N   0  0  0  0  0  0  0  0  0  0  0  0
   11.8285   -2.3247    1.3359 C   0  0  0  0  0  0  0  0  0  0  0  0
   11.7344   -1.2624    1.5901 H   0  0  0  0  0  0  0  0  0  0  0  0
   11.0804   -2.5463    0.5680 H   0  0  0  0  0  0  0  0  0  0  0  0
   11.5894   -2.9247    2.2217 H   0  0  0  0  0  0  0  0  0  0  0  0
   14.3601   -2.4423    1.5097 C   0  0  0  0  0  0  0  0  0  0  0  0
   14.4863   -2.0366    2.8054 N   0  0  0  0  0  0  0  0  0  0  0  0
   15.3974   -2.1803    3.2365 H   0  0  0  0  0  0  0  0  0  0  0  0
   13.6604   -2.1108    3.3940 H   0  0  0  0  0  0  0  0  0  0  0  0
   15.3867   -2.7439    0.7875 N   0  0  0  0  0  4  0  0  0  0  0  0
   16.3521   -2.7027    1.1187 H   0  0  0  0  0  0  0  0  0  0  0  0
   14.5412   -5.6612   -1.0925 C   0  0  0  0  0  0  0  0  0  0  0  0
   13.4854   -5.4674   -1.2374 H   0  0  0  0  0  0  0  0  0  0  0  0
   11.5096   -8.3505    0.3356 C   0  0  0  0  0  0  0  0  0  0  0  0
   12.0448   -9.2937    0.3360 H   0  0  0  0  0  0  0  0  0  0  0  0
  1  2  1  0
  2  3  2  0
  3  4  1  0
  4  5  1  0
  4  6  2  0
  6  7  1  0
  6  8  1  0
  8  9  1  0
  9 10  1  0
  9 11  1  0
  9 12  1  0
 12 13  1  0
 12 14  1  0
 14 15  2  0
 15 16  1  0
 15 17  1  0
 17 18  1  0
 17 19  2  0
 19 20  1  0
 19 21  1  0
 21 22  1  0
 22 23  1  0
 23 24  2  0
 24 25  1  0
 24 26  1  0
 26 27  1  0
 26 28  2  0
 28 29  1  0
 28 30  1  0
 30 31  1  0
 30 32  2  0
 32 33  1  0
 22 34  1  0
 34 35  2  0
 34 36  1  0
 36 37  1  0
 37 38  1  0
 37 39  1  0
 37 40  1  0
 36 41  1  0
 41 42  1  0
 42 43  1  0
 42 44  1  0
 41 45  2  0
 45 46  1  0
 21 47  2  0
 47 48  1  0
  8 49  2  0
 49 50  1  0
 49  2  1  0
 47 14  1  0
 45 22  1  0
 32 23  1  0
M  CHG  1  45   1
M  END
>  <score>  (227) 
5.56036

$$$$

     RDKit          3D

 50 53  0  0  0  0  0  0  0  0999 V2000
   16.1001   -8.4294   -1.6493 H   0  0  0  0  0  0  0  0  0  0  0  0
   15.8577   -7.3832   -1.4892 C   0  0  0  0  0  0  0  0  0  0  0  0
   16.7522   -6.5548   -0.8043 C   0  0  0  0  0  0  0  0  0  0  0  0
   17.6912   -6.9494   -0.4279 H   0  0  0  0  0  0  0  0  0  0  0  0
   16.4341   -5.2110   -0.5889 C   0  0  0  0  0  0  0  0  0  0  0  0
   17.1296   -4.5742   -0.0486 H   0  0  0  0  0  0  0  0  0  0  0  0
   15.2120   -4.6829   -1.0350 C   0  0  0  0  0  0  0  0  0  0  0  0
   14.8345   -3.2407   -0.7308 C   0  0  0  0  0  0  0  0  0  0  0  0
   15.3702   -2.2322   -1.7380 C   0  0  0  0  0  0  0  0  0  0  0  0
   15.9306   -2.6395   -2.9608 C   0  0  0  0  0  0  0  0  0  0  0  0
   15.9875   -3.6941   -3.2145 H   0  0  0  0  0  0  0  0  0  0  0  0
   16.4229   -1.6959   -3.8670 C   0  0  0  0  0  0  0  0  0  0  0  0
   16.8552   -2.0144   -4.8121 H   0  0  0  0  0  0  0  0  0  0  0  0
   16.3574   -0.3337   -3.5569 C   0  0  0  0  0  0  0  0  0  0  0  0
   16.7634    0.3916   -4.2550 H   0  0  0  0  0  0  0  0  0  0  0  0
   15.7563    0.1160   -2.3696 C   0  0  0  0  0  0  0  0  0  0  0  0
   15.6856    1.5689   -2.0883 C   0  0  0  0  0  0  0  0  0  0  0  0
   16.7752    2.3737   -2.4438 C   0  0  0  0  0  0  0  0  0  0  0  0
   17.6433    1.8966   -2.8802 H   0  0  0  0  0  0  0  0  0  0  0  0
   16.7765    3.7476   -2.1976 C   0  0  0  0  0  0  0  0  0  0  0  0
   17.6599    4.3289   -2.4425 H   0  0  0  0  0  0  0  0  0  0  0  0
   15.6404    4.3516   -1.6483 C   0  0  0  0  0  0  0  0  0  0  0  0
   15.6080    5.4241   -1.4887 H   0  0  0  0  0  0  0  0  0  0  0  0
   14.5170    3.5842   -1.3218 C   0  0  0  0  0  0  0  0  0  0  0  0
   13.3801    4.2300   -0.8963 O   0  0  0  0  0  0  0  0  0  0  0  0
   12.2832    3.3726   -0.5542 C   0  0  0  0  0  0  0  0  0  0  0  0
   11.9257    2.5874   -1.6118 F   0  0  0  0  0  0  0  0  0  0  0  0
   11.2094    4.1138   -0.1787 F   0  0  0  0  0  0  0  0  0  0  0  0
   12.6430    2.5898    0.4876 F   0  0  0  0  0  0  0  0  0  0  0  0
   14.5693    2.1852   -1.4922 C   0  0  0  0  0  0  0  0  0  0  0  0
   13.7097    1.5902   -1.1954 H   0  0  0  0  0  0  0  0  0  0  0  0
   15.2619   -0.8492   -1.4736 C   0  0  0  0  0  0  0  0  0  0  0  0
   14.8138   -0.5255   -0.5393 H   0  0  0  0  0  0  0  0  0  0  0  0
   13.3163   -3.0524   -0.5572 C   0  0  0  0  0  0  0  0  0  0  0  0
   12.4482   -3.2012   -1.4170 O   0  0  0  0  0  0  0  0  0  0  0  0
   13.0515   -2.6680    0.7410 N   0  0  0  0  0  0  0  0  0  0  0  0
   11.7482   -2.3067    1.2946 C   0  0  0  0  0  0  0  0  0  0  0  0
   10.9493   -2.4833    0.5649 H   0  0  0  0  0  0  0  0  0  0  0  0
   11.7321   -1.2458    1.5672 H   0  0  0  0  0  0  0  0  0  0  0  0
   11.5292   -2.9025    2.1879 H   0  0  0  0  0  0  0  0  0  0  0  0
   14.2610   -2.5910    1.3972 C   0  0  0  0  0  0  0  0  0  0  0  0
   14.4433   -2.2448    2.7018 N   0  0  0  0  0  0  0  0  0  0  0  0
   13.6314   -2.1100    3.3020 H   0  0  0  0  0  0  0  0  0  0  0  0
   15.3799   -2.2923    3.0985 H   0  0  0  0  0  0  0  0  0  0  0  0
   15.2610   -2.8954    0.6401 N   0  0  0  0  0  4  0  0  0  0  0  0
   16.2242   -2.9776    0.9699 H   0  0  0  0  0  0  0  0  0  0  0  0
   14.3317   -5.5185   -1.7433 C   0  0  0  0  0  0  0  0  0  0  0  0
   13.3865   -5.1254   -2.1058 H   0  0  0  0  0  0  0  0  0  0  0  0
   14.6506   -6.8621   -1.9667 C   0  0  0  0  0  0  0  0  0  0  0  0
   13.9535   -7.4992   -2.5019 H   0  0  0  0  0  0  0  0  0  0  0  0
  1  2  1  0
  2  3  2  0
  3  4  1  0
  3  5  1  0
  5  6  1  0
  5  7  2  0
  7  8  1  0
  8  9  1  0
  9 10  2  0
 10 11  1  0
 10 12  1  0
 12 13  1  0
 12 14  2  0
 14 15  1  0
 14 16  1  0
 16 17  1  0
 17 18  2  0
 18 19  1  0
 18 20  1  0
 20 21  1  0
 20 22  2  0
 22 23  1  0
 22 24  1  0
 24 25  1  0
 25 26  1  0
 26 27  1  0
 26 28  1  0
 26 29  1  0
 24 30  2  0
 30 31  1  0
 16 32  2  0
 32 33  1  0
  8 34  1  0
 34 35  2  0
 34 36  1  0
 36 37  1  0
 37 38  1  0
 37 39  1  0
 37 40  1  0
 36 41  1  0
 41 42  1  0
 42 43  1  0
 42 44  1  0
 41 45  2  0
 45 46  1  0
  7 47  1  0
 47 48  1  0
 47 49  2  0
 49 50  1  0
 49  2  1  0
 45  8  1  0
 32  9  1  0
 30 17  1  0
M  CHG  1  45   1
M  END
>  <score>  (228) 
5.55696

$$$$

     RDKit          3D

 50 53  0  0  0  0  0  0  0  0999 V2000
   16.1309   -8.3647   -1.6982 H   0  0  0  0  0  0  0  0  0  0  0  0
   15.8776   -7.3260   -1.5111 C   0  0  0  0  0  0  0  0  0  0  0  0
   16.7645   -6.5083   -0.8009 C   0  0  0  0  0  0  0  0  0  0  0  0
   17.7133   -6.8992   -0.4430 H   0  0  0  0  0  0  0  0  0  0  0  0
   16.4266   -5.1773   -0.5319 C   0  0  0  0  0  0  0  0  0  0  0  0
   17.1181   -4.5428    0.0176 H   0  0  0  0  0  0  0  0  0  0  0  0
   15.1975   -4.6467   -0.9591 C   0  0  0  0  0  0  0  0  0  0  0  0
   14.8246   -3.1966   -0.6484 C   0  0  0  0  0  0  0  0  0  0  0  0
   15.3945   -2.2113   -1.6669 C   0  0  0  0  0  0  0  0  0  0  0  0
   15.9313   -2.6542   -2.8908 C   0  0  0  0  0  0  0  0  0  0  0  0
   15.9688   -3.7159   -3.1124 H   0  0  0  0  0  0  0  0  0  0  0  0
   16.4171   -1.7446   -3.8347 C   0  0  0  0  0  0  0  0  0  0  0  0
   16.8256   -2.0958   -4.7771 H   0  0  0  0  0  0  0  0  0  0  0  0
   16.3622   -0.3756   -3.5695 C   0  0  0  0  0  0  0  0  0  0  0  0
   16.7231    0.3379   -4.3021 H   0  0  0  0  0  0  0  0  0  0  0  0
   15.8186    0.1023   -2.3775 C   0  0  0  0  0  0  0  0  0  0  0  0
   15.8094    1.4662   -2.2092 O   0  0  0  0  0  0  0  0  0  0  0  0
   15.1074    2.0135   -1.0858 C   0  0  0  0  0  0  0  0  0  0  0  0
   15.3857    1.5037   -0.1565 H   0  0  0  0  0  0  0  0  0  0  0  0
   13.5886    1.9775   -1.2720 C   0  0  0  0  0  0  0  0  0  0  0  0
   13.3462    1.8676   -2.3342 H   0  0  0  0  0  0  0  0  0  0  0  0
   13.1507    1.1360   -0.7265 H   0  0  0  0  0  0  0  0  0  0  0  0
   13.0430    3.3139   -0.7548 C   0  0  0  0  0  0  0  0  0  0  0  0
   12.5373    3.8511   -1.5645 H   0  0  0  0  0  0  0  0  0  0  0  0
   12.3250    3.1666    0.0570 H   0  0  0  0  0  0  0  0  0  0  0  0
   14.2450    4.1128   -0.2645 C   0  0  0  0  0  0  0  0  0  0  0  0
   14.3528    3.9975    0.8181 H   0  0  0  0  0  0  0  0  0  0  0  0
   14.1471    5.1801   -0.4863 H   0  0  0  0  0  0  0  0  0  0  0  0
   15.4424    3.4935   -0.9655 C   0  0  0  0  0  0  0  0  0  0  0  0
   15.5560    3.9304   -1.9623 H   0  0  0  0  0  0  0  0  0  0  0  0
   16.3706    3.6590   -0.4128 H   0  0  0  0  0  0  0  0  0  0  0  0
   15.3313   -0.8195   -1.4340 C   0  0  0  0  0  0  0  0  0  0  0  0
   14.9084   -0.4360   -0.5110 H   0  0  0  0  0  0  0  0  0  0  0  0
   13.3034   -2.9740   -0.5350 C   0  0  0  0  0  0  0  0  0  0  0  0
   12.4404   -3.2408   -1.3699 O   0  0  0  0  0  0  0  0  0  0  0  0
   13.0002   -2.4658    0.7118 N   0  0  0  0  0  0  0  0  0  0  0  0
   11.6421   -2.2342    1.2070 C   0  0  0  0  0  0  0  0  0  0  0  0
   11.5084   -1.2000    1.5497 H   0  0  0  0  0  0  0  0  0  0  0  0
   10.9112   -2.4197    0.4104 H   0  0  0  0  0  0  0  0  0  0  0  0
   11.4187   -2.9209    2.0286 H   0  0  0  0  0  0  0  0  0  0  0  0
   14.1718   -2.4442    1.4355 C   0  0  0  0  0  0  0  0  0  0  0  0
   14.3149   -2.1090    2.7484 N   0  0  0  0  0  0  0  0  0  0  0  0
   15.2188   -2.2819    3.1860 H   0  0  0  0  0  0  0  0  0  0  0  0
   13.4737   -2.0180    3.3178 H   0  0  0  0  0  0  0  0  0  0  0  0
   15.1935   -2.8318    0.7407 N   0  0  0  0  0  4  0  0  0  0  0  0
   16.1354   -2.9167    1.1256 H   0  0  0  0  0  0  0  0  0  0  0  0
   14.3272   -5.4705   -1.6982 C   0  0  0  0  0  0  0  0  0  0  0  0
   13.3820   -5.0729   -2.0587 H   0  0  0  0  0  0  0  0  0  0  0  0
   14.6601   -6.8040   -1.9653 C   0  0  0  0  0  0  0  0  0  0  0  0
   13.9673   -7.4335   -2.5159 H   0  0  0  0  0  0  0  0  0  0  0  0
  1  2  1  0
  2  3  2  0
  3  4  1  0
  3  5  1  0
  5  6  1  0
  5  7  2  0
  7  8  1  0
  8  9  1  0
  9 10  2  0
 10 11  1  0
 10 12  1  0
 12 13  1  0
 12 14  2  0
 14 15  1  0
 14 16  1  0
 16 17  1  0
 17 18  1  0
 18 19  1  0
 18 20  1  0
 20 21  1  0
 20 22  1  0
 20 23  1  0
 23 24  1  0
 23 25  1  0
 23 26  1  0
 26 27  1  0
 26 28  1  0
 26 29  1  0
 29 30  1  0
 29 31  1  0
 16 32  2  0
 32 33  1  0
  8 34  1  0
 34 35  2  0
 34 36  1  0
 36 37  1  0
 37 38  1  0
 37 39  1  0
 37 40  1  0
 36 41  1  0
 41 42  1  0
 42 43  1  0
 42 44  1  0
 41 45  2  0
 45 46  1  0
  7 47  1  0
 47 48  1  0
 47 49  2  0
 49 50  1  0
 49  2  1  0
 45  8  1  0
 32  9  1  0
 29 18  1  0
M  CHG  1  45   1
M  END
>  <score>  (229) 
5.55693

$$$$

     RDKit          3D

 48 51  0  0  0  0  0  0  0  0999 V2000
   11.5492  -11.0436   -4.0711 H   0  0  0  0  0  0  0  0  0  0  0  0
   11.4597  -11.0879   -3.0990 O   0  0  0  0  0  0  0  0  0  0  0  0
   12.3119  -10.1627   -2.5370 C   0  0  0  0  0  0  0  0  0  0  0  0
   13.1728   -9.5051   -3.4144 C   0  0  0  0  0  0  0  0  0  0  0  0
   13.2075   -9.7740   -4.4590 H   0  0  0  0  0  0  0  0  0  0  0  0
   14.0001   -8.4777   -2.9699 C   0  0  0  0  0  0  0  0  0  0  0  0
   14.6180   -7.9475   -3.6923 H   0  0  0  0  0  0  0  0  0  0  0  0
   14.0406   -8.1364   -1.6147 C   0  0  0  0  0  0  0  0  0  0  0  0
   14.9532   -7.0736   -1.1884 C   0  0  0  0  0  0  0  0  0  0  0  0
   16.2986   -7.3632   -0.9210 C   0  0  0  0  0  0  0  0  0  0  0  0
   16.6410   -8.3914   -0.9522 H   0  0  0  0  0  0  0  0  0  0  0  0
   17.2016   -6.3397   -0.6159 C   0  0  0  0  0  0  0  0  0  0  0  0
   18.2454   -6.5634   -0.4102 H   0  0  0  0  0  0  0  0  0  0  0  0
   16.7616   -5.0148   -0.5765 C   0  0  0  0  0  0  0  0  0  0  0  0
   17.4636   -4.2217   -0.3329 H   0  0  0  0  0  0  0  0  0  0  0  0
   15.4079   -4.7067   -0.7862 C   0  0  0  0  0  0  0  0  0  0  0  0
   14.9133   -3.2820   -0.6123 C   0  0  0  0  0  0  0  0  0  0  0  0
   15.4156   -2.3173   -1.6775 C   0  0  0  0  0  0  0  0  0  0  0  0
   15.9306   -2.7489   -2.9147 C   0  0  0  0  0  0  0  0  0  0  0  0
   15.9814   -3.8105   -3.1424 H   0  0  0  0  0  0  0  0  0  0  0  0
   16.3887   -1.8160   -3.8563 C   0  0  0  0  0  0  0  0  0  0  0  0
   16.7986   -2.1478   -4.8042 H   0  0  0  0  0  0  0  0  0  0  0  0
   16.3280   -0.4470   -3.5767 C   0  0  0  0  0  0  0  0  0  0  0  0
   16.6972    0.2759   -4.2971 H   0  0  0  0  0  0  0  0  0  0  0  0
   15.7911   -0.0075   -2.3647 C   0  0  0  0  0  0  0  0  0  0  0  0
   15.7331    1.0521   -2.1354 H   0  0  0  0  0  0  0  0  0  0  0  0
   15.3322   -0.9374   -1.4304 C   0  0  0  0  0  0  0  0  0  0  0  0
   14.9137   -0.5926   -0.4887 H   0  0  0  0  0  0  0  0  0  0  0  0
   13.3834   -3.1578   -0.4485 C   0  0  0  0  0  0  0  0  0  0  0  0
   12.5216   -3.4263   -1.2856 O   0  0  0  0  0  0  0  0  0  0  0  0
   13.0975   -2.6728    0.8121 N   0  0  0  0  0  0  0  0  0  0  0  0
   11.7846   -2.3019    1.3381 C   0  0  0  0  0  0  0  0  0  0  0  0
   11.5493   -2.8808    2.2381 H   0  0  0  0  0  0  0  0  0  0  0  0
   10.9976   -2.4889    0.5975 H   0  0  0  0  0  0  0  0  0  0  0  0
   11.7681   -1.2367    1.5946 H   0  0  0  0  0  0  0  0  0  0  0  0
   14.3018   -2.5139    1.4625 C   0  0  0  0  0  0  0  0  0  0  0  0
   14.4808   -2.1016    2.7438 N   0  0  0  0  0  0  0  0  0  0  0  0
   13.6683   -2.0873    3.3560 H   0  0  0  0  0  0  0  0  0  0  0  0
   15.4043   -2.2442    3.1496 H   0  0  0  0  0  0  0  0  0  0  0  0
   15.3156   -2.8295    0.7302 N   0  0  0  0  0  4  0  0  0  0  0  0
   16.2774   -2.8707    1.0721 H   0  0  0  0  0  0  0  0  0  0  0  0
   14.5195   -5.7429   -1.1114 C   0  0  0  0  0  0  0  0  0  0  0  0
   13.4742   -5.5126   -1.2866 H   0  0  0  0  0  0  0  0  0  0  0  0
   13.2272   -8.8335   -0.7077 C   0  0  0  0  0  0  0  0  0  0  0  0
   13.2631   -8.5944    0.3522 H   0  0  0  0  0  0  0  0  0  0  0  0
   12.3611   -9.8428   -1.1569 C   0  0  0  0  0  0  0  0  0  0  0  0
   11.6007  -10.4827   -0.2052 O   0  0  0  0  0  0  0  0  0  0  0  0
   11.1360  -11.2388   -0.5916 H   0  0  0  0  0  0  0  0  0  0  0  0
  1  2  1  0
  2  3  1  0
  3  4  2  0
  4  5  1  0
  4  6  1  0
  6  7  1  0
  6  8  2  0
  8  9  1  0
  9 10  2  0
 10 11  1  0
 10 12  1  0
 12 13  1  0
 12 14  2  0
 14 15  1  0
 14 16  1  0
 16 17  1  0
 17 18  1  0
 18 19  2  0
 19 20  1  0
 19 21  1  0
 21 22  1  0
 21 23  2  0
 23 24  1  0
 23 25  1  0
 25 26  1  0
 25 27  2  0
 27 28  1  0
 17 29  1  0
 29 30  2  0
 29 31  1  0
 31 32  1  0
 32 33  1  0
 32 34  1  0
 32 35  1  0
 31 36  1  0
 36 37  1  0
 37 38  1  0
 37 39  1  0
 36 40  2  0
 40 41  1  0
 16 42  2  0
 42 43  1  0
  8 44  1  0
 44 45  1  0
 44 46  2  0
 46 47  1  0
 47 48  1  0
 46  3  1  0
 42  9  1  0
 40 17  1  0
 27 18  1  0
M  CHG  1  40   1
M  END
>  <score>  (230) 
5.55608

$$$$

     RDKit          3D

 46 49  0  0  0  0  0  0  0  0999 V2000
   16.1002   -8.4505   -1.6239 H   0  0  0  0  0  0  0  0  0  0  0  0
   15.8573   -7.4009   -1.4852 C   0  0  0  0  0  0  0  0  0  0  0  0
   16.7429   -6.5629   -0.8009 C   0  0  0  0  0  0  0  0  0  0  0  0
   17.6797   -6.9544   -0.4120 H   0  0  0  0  0  0  0  0  0  0  0  0
   16.4137   -5.2174   -0.5995 C   0  0  0  0  0  0  0  0  0  0  0  0
   17.0975   -4.5721   -0.0564 H   0  0  0  0  0  0  0  0  0  0  0  0
   15.1969   -4.6874   -1.0598 C   0  0  0  0  0  0  0  0  0  0  0  0
   14.8314   -3.2322   -0.7648 C   0  0  0  0  0  0  0  0  0  0  0  0
   15.3925   -2.2278   -1.7707 C   0  0  0  0  0  0  0  0  0  0  0  0
   15.9390   -2.6477   -2.9966 C   0  0  0  0  0  0  0  0  0  0  0  0
   15.9902   -3.7082   -3.2296 H   0  0  0  0  0  0  0  0  0  0  0  0
   16.4186   -1.7149   -3.9202 C   0  0  0  0  0  0  0  0  0  0  0  0
   16.8415   -2.0388   -4.8635 H   0  0  0  0  0  0  0  0  0  0  0  0
   16.3565   -0.3499   -3.6356 C   0  0  0  0  0  0  0  0  0  0  0  0
   16.7324    0.3751   -4.3505 H   0  0  0  0  0  0  0  0  0  0  0  0
   15.8042    0.1026   -2.4317 C   0  0  0  0  0  0  0  0  0  0  0  0
   15.7432    1.5972   -2.1754 C   0  0  0  0  0  0  0  0  0  0  0  0
   16.1524    2.1398   -3.0378 H   0  0  0  0  0  0  0  0  0  0  0  0
   14.4019    2.1908   -1.7432 C   0  0  0  0  0  0  0  0  0  0  0  0
   13.9830    2.8806   -2.4832 H   0  0  0  0  0  0  0  0  0  0  0  0
   13.6550    1.4356   -1.4677 H   0  0  0  0  0  0  0  0  0  0  0  0
   15.0672    2.8881   -0.5523 C   0  0  0  0  0  0  0  0  0  0  0  0
   15.1502    3.9754   -0.6740 H   0  0  0  0  0  0  0  0  0  0  0  0
   14.6450    2.6938    0.4370 H   0  0  0  0  0  0  0  0  0  0  0  0
   16.3456    2.1144   -0.8692 C   0  0  0  0  0  0  0  0  0  0  0  0
   17.2301    2.7460   -1.0086 H   0  0  0  0  0  0  0  0  0  0  0  0
   16.5587    1.3178   -0.1468 H   0  0  0  0  0  0  0  0  0  0  0  0
   15.3220   -0.8407   -1.5068 C   0  0  0  0  0  0  0  0  0  0  0  0
   14.8894   -0.4922   -0.5706 H   0  0  0  0  0  0  0  0  0  0  0  0
   13.3093   -3.0358   -0.5945 C   0  0  0  0  0  0  0  0  0  0  0  0
   12.4425   -3.1525   -1.4612 O   0  0  0  0  0  0  0  0  0  0  0  0
   13.0369   -2.6813    0.7137 N   0  0  0  0  0  0  0  0  0  0  0  0
   11.7344   -2.3156    1.2770 C   0  0  0  0  0  0  0  0  0  0  0  0
   10.9314   -2.4818    0.5507 H   0  0  0  0  0  0  0  0  0  0  0  0
   11.7220   -1.2564    1.5575 H   0  0  0  0  0  0  0  0  0  0  0  0
   11.5064   -2.9134    2.1677 H   0  0  0  0  0  0  0  0  0  0  0  0
   14.2462   -2.6146    1.3731 C   0  0  0  0  0  0  0  0  0  0  0  0
   14.4190   -2.2839    2.6826 N   0  0  0  0  0  0  0  0  0  0  0  0
   15.3551   -2.3224    3.0844 H   0  0  0  0  0  0  0  0  0  0  0  0
   13.6060   -2.1213    3.2744 H   0  0  0  0  0  0  0  0  0  0  0  0
   15.2521   -2.9027    0.6139 N   0  0  0  0  0  4  0  0  0  0  0  0
   16.2167   -2.9717    0.9468 H   0  0  0  0  0  0  0  0  0  0  0  0
   14.3205   -5.5418   -1.7570 C   0  0  0  0  0  0  0  0  0  0  0  0
   13.3684   -5.1639   -2.1172 H   0  0  0  0  0  0  0  0  0  0  0  0
   14.6487   -6.8897   -1.9701 C   0  0  0  0  0  0  0  0  0  0  0  0
   13.9556   -7.5478   -2.4883 H   0  0  0  0  0  0  0  0  0  0  0  0
  1  2  1  0
  2  3  2  0
  3  4  1  0
  3  5  1  0
  5  6  1  0
  5  7  2  0
  7  8  1  0
  8  9  1  0
  9 10  2  0
 10 11  1  0
 10 12  1  0
 12 13  1  0
 12 14  2  0
 14 15  1  0
 14 16  1  0
 16 17  1  0
 17 18  1  0
 17 19  1  0
 19 20  1  0
 19 21  1  0
 19 22  1  0
 22 23  1  0
 22 24  1  0
 22 25  1  0
 25 26  1  0
 25 27  1  0
 16 28  2  0
 28 29  1  0
  8 30  1  0
 30 31  2  0
 30 32  1  0
 32 33  1  0
 33 34  1  0
 33 35  1  0
 33 36  1  0
 32 37  1  0
 37 38  1  0
 38 39  1  0
 38 40  1  0
 37 41  2  0
 41 42  1  0
  7 43  1  0
 43 44  1  0
 43 45  2  0
 45 46  1  0
 45  2  1  0
 41  8  1  0
 28  9  1  0
 25 17  1  0
M  CHG  1  41   1
M  END
>  <score>  (231) 
5.55385

$$$$

     RDKit          3D

 59 63  0  0  0  0  0  0  0  0999 V2000
   10.3499  -13.5956   -4.7012 H   0  0  0  0  0  0  0  0  0  0  0  0
   10.0097  -12.9280   -3.9123 C   0  0  0  0  0  0  0  0  0  0  0  0
   10.8209  -11.9546   -3.5018 N   0  0  0  0  0  0  0  0  0  0  0  0
   10.4324  -11.1551   -2.5014 C   0  0  0  0  0  0  0  0  0  0  0  0
   11.3384  -10.1572   -2.1044 N   0  0  0  0  0  0  0  0  0  0  0  0
   11.0894   -9.2373   -0.9626 C   0  0  0  0  0  0  0  0  0  0  0  0
   11.3452   -9.7505   -0.0284 H   0  0  0  0  0  0  0  0  0  0  0  0
   10.0268   -8.9784   -0.9141 H   0  0  0  0  0  0  0  0  0  0  0  0
   11.9119   -7.9126   -1.0453 C   0  0  0  0  0  0  0  0  0  0  0  0
   11.5064   -7.2885   -1.8452 H   0  0  0  0  0  0  0  0  0  0  0  0
   11.7668   -7.3724   -0.1091 H   0  0  0  0  0  0  0  0  0  0  0  0
   13.3644   -8.1297   -1.2913 N   0  0  0  0  0  0  0  0  0  0  0  0
   14.3510   -7.1392   -1.0814 C   0  0  0  0  0  0  0  0  0  0  0  0
   15.7001   -7.5138   -1.0005 C   0  0  0  0  0  0  0  0  0  0  0  0
   15.9498   -8.5656   -1.0606 H   0  0  0  0  0  0  0  0  0  0  0  0
   16.7130   -6.5624   -0.8299 C   0  0  0  0  0  0  0  0  0  0  0  0
   17.7573   -6.8567   -0.7600 H   0  0  0  0  0  0  0  0  0  0  0  0
   16.3761   -5.2130   -0.7321 C   0  0  0  0  0  0  0  0  0  0  0  0
   17.1604   -4.4712   -0.6029 H   0  0  0  0  0  0  0  0  0  0  0  0
   15.0375   -4.8007   -0.7789 C   0  0  0  0  0  0  0  0  0  0  0  0
   14.7050   -3.3300   -0.5620 C   0  0  0  0  0  0  0  0  0  0  0  0
   15.2676   -2.3898   -1.6196 C   0  0  0  0  0  0  0  0  0  0  0  0
   15.8058   -2.8566   -2.8312 C   0  0  0  0  0  0  0  0  0  0  0  0
   15.8193   -3.9211   -3.0453 H   0  0  0  0  0  0  0  0  0  0  0  0
   16.3365   -1.9587   -3.7679 C   0  0  0  0  0  0  0  0  0  0  0  0
   16.7564   -2.3203   -4.7001 H   0  0  0  0  0  0  0  0  0  0  0  0
   16.3323   -0.5846   -3.5079 C   0  0  0  0  0  0  0  0  0  0  0  0
   16.7600    0.1114   -4.2246 H   0  0  0  0  0  0  0  0  0  0  0  0
   15.7771   -0.1063   -2.3183 C   0  0  0  0  0  0  0  0  0  0  0  0
   15.7609    0.9592   -2.1075 H   0  0  0  0  0  0  0  0  0  0  0  0
   15.2429   -1.0031   -1.3887 C   0  0  0  0  0  0  0  0  0  0  0  0
   14.8133   -0.6235   -0.4657 H   0  0  0  0  0  0  0  0  0  0  0  0
   13.2034   -3.0710   -0.3479 C   0  0  0  0  0  0  0  0  0  0  0  0
   12.2929   -3.2799   -1.1506 O   0  0  0  0  0  0  0  0  0  0  0  0
   13.0046   -2.5608    0.9192 N   0  0  0  0  0  0  0  0  0  0  0  0
   11.7331   -2.1720    1.5294 C   0  0  0  0  0  0  0  0  0  0  0  0
   11.7426   -1.1047    1.7770 H   0  0  0  0  0  0  0  0  0  0  0  0
   10.8929   -2.3576    0.8484 H   0  0  0  0  0  0  0  0  0  0  0  0
   11.5615   -2.7448    2.4486 H   0  0  0  0  0  0  0  0  0  0  0  0
   14.2384   -2.4961    1.5279 C   0  0  0  0  0  0  0  0  0  0  0  0
   14.4984   -2.0540    2.7862 N   0  0  0  0  0  0  0  0  0  0  0  0
   15.4262   -2.2441    3.1614 H   0  0  0  0  0  0  0  0  0  0  0  0
   13.7142   -1.9455    3.4268 H   0  0  0  0  0  0  0  0  0  0  0  0
   15.1915   -2.9239    0.7718 N   0  0  0  0  0  4  0  0  0  0  0  0
   16.1692   -2.9801    1.0622 H   0  0  0  0  0  0  0  0  0  0  0  0
   14.0344   -5.7785   -0.9692 C   0  0  0  0  0  0  0  0  0  0  0  0
   12.9913   -5.4993   -1.0289 H   0  0  0  0  0  0  0  0  0  0  0  0
   13.7450   -9.3684   -2.0073 C   0  0  0  0  0  0  0  0  0  0  0  0
   14.0869  -10.1172   -1.2921 H   0  0  0  0  0  0  0  0  0  0  0  0
   14.5829   -9.1493   -2.6689 H   0  0  0  0  0  0  0  0  0  0  0  0
   12.6036   -9.9641   -2.8604 C   0  0  0  0  0  0  0  0  0  0  0  0
   12.4169   -9.2914   -3.6948 H   0  0  0  0  0  0  0  0  0  0  0  0
   12.9442  -10.9124   -3.2856 H   0  0  0  0  0  0  0  0  0  0  0  0
    9.1721  -11.2963   -1.9011 C   0  0  0  0  0  0  0  0  0  0  0  0
    8.8989  -10.6355   -1.0904 H   0  0  0  0  0  0  0  0  0  0  0  0
    8.2931  -12.2904   -2.3402 C   0  0  0  0  0  0  0  0  0  0  0  0
    7.2865  -12.4168   -1.9362 H   0  0  0  0  0  0  0  0  0  0  0  0
    8.7604  -13.1387   -3.3382 C   0  0  0  0  0  0  0  0  0  0  0  0
    8.1642  -13.9603   -3.7061 H   0  0  0  0  0  0  0  0  0  0  0  0
  1  2  1  0
  2  3  2  0
  3  4  1  0
  4  5  1  0
  5  6  1  0
  6  7  1  0
  6  8  1  0
  6  9  1  0
  9 10  1  0
  9 11  1  0
  9 12  1  0
 12 13  1  0
 13 14  2  0
 14 15  1  0
 14 16  1  0
 16 17  1  0
 16 18  2  0
 18 19  1  0
 18 20  1  0
 20 21  1  0
 21 22  1  0
 22 23  2  0
 23 24  1  0
 23 25  1  0
 25 26  1  0
 25 27  2  0
 27 28  1  0
 27 29  1  0
 29 30  1  0
 29 31  2  0
 31 32  1  0
 21 33  1  0
 33 34  2  0
 33 35  1  0
 35 36  1  0
 36 37  1  0
 36 38  1  0
 36 39  1  0
 35 40  1  0
 40 41  1  0
 41 42  1  0
 41 43  1  0
 40 44  2  0
 44 45  1  0
 20 46  2  0
 46 47  1  0
 12 48  1  0
 48 49  1  0
 48 50  1  0
 48 51  1  0
 51 52  1  0
 51 53  1  0
  4 54  2  0
 54 55  1  0
 54 56  1  0
 56 57  1  0
 56 58  2  0
 58 59  1  0
 58  2  1  0
 51  5  1  0
 46 13  1  0
 44 21  1  0
 31 22  1  0
M  CHG  1  44   1
M  END
>  <score>  (232) 
5.55276

$$$$

     RDKit          3D

 36 38  0  0  0  0  0  0  0  0999 V2000
   16.1278   -8.4912   -1.6106 H   0  0  0  0  0  0  0  0  0  0  0  0
   15.8548   -7.4483   -1.4685 C   0  0  0  0  0  0  0  0  0  0  0  0
   16.7262   -6.5887   -0.7970 C   0  0  0  0  0  0  0  0  0  0  0  0
   17.6770   -6.9547   -0.4205 H   0  0  0  0  0  0  0  0  0  0  0  0
   16.3822   -5.2463   -0.6065 C   0  0  0  0  0  0  0  0  0  0  0  0
   17.0710   -4.5993   -0.0723 H   0  0  0  0  0  0  0  0  0  0  0  0
   15.1614   -4.7256   -1.0701 C   0  0  0  0  0  0  0  0  0  0  0  0
   14.8031   -3.2598   -0.7840 C   0  0  0  0  0  0  0  0  0  0  0  0
   15.3863   -2.2630   -1.7847 C   0  0  0  0  0  0  0  0  0  0  0  0
   15.9454   -2.6540   -3.0154 C   0  0  0  0  0  0  0  0  0  0  0  0
   16.0085   -3.7019   -3.2737 H   0  0  0  0  0  0  0  0  0  0  0  0
   16.4272   -1.7058   -3.9295 C   0  0  0  0  0  0  0  0  0  0  0  0
   16.8646   -2.0130   -4.8747 H   0  0  0  0  0  0  0  0  0  0  0  0
   16.3468   -0.3426   -3.6325 C   0  0  0  0  0  0  0  0  0  0  0  0
   16.7019    0.4031   -4.3407 H   0  0  0  0  0  0  0  0  0  0  0  0
   15.7971    0.0750   -2.4162 C   0  0  0  0  0  0  0  0  0  0  0  0
   15.6687    2.2718   -1.9303 I   0  0  0  0  0  0  0  0  0  0  0  0
   15.3231   -0.8823   -1.5070 C   0  0  0  0  0  0  0  0  0  0  0  0
   14.9013   -0.5282   -0.5695 H   0  0  0  0  0  0  0  0  0  0  0  0
   13.2894   -3.0209   -0.6097 C   0  0  0  0  0  0  0  0  0  0  0  0
   12.4207   -3.0771   -1.4813 O   0  0  0  0  0  0  0  0  0  0  0  0
   13.0195   -2.6678    0.6989 N   0  0  0  0  0  0  0  0  0  0  0  0
   11.7178   -2.3123    1.2629 C   0  0  0  0  0  0  0  0  0  0  0  0
   11.5004   -2.9212    2.1454 H   0  0  0  0  0  0  0  0  0  0  0  0
   10.9155   -2.4759    0.5370 H   0  0  0  0  0  0  0  0  0  0  0  0
   11.6929   -1.2591    1.5596 H   0  0  0  0  0  0  0  0  0  0  0  0
   14.2228   -2.6312    1.3660 C   0  0  0  0  0  0  0  0  0  0  0  0
   14.3897   -2.3407    2.6916 N   0  0  0  0  0  0  0  0  0  0  0  0
   13.5790   -2.1264    3.2691 H   0  0  0  0  0  0  0  0  0  0  0  0
   15.3248   -2.3588    3.0980 H   0  0  0  0  0  0  0  0  0  0  0  0
   15.2176   -2.9074    0.5918 N   0  0  0  0  0  4  0  0  0  0  0  0
   16.1925   -2.8935    0.8953 H   0  0  0  0  0  0  0  0  0  0  0  0
   14.2985   -5.6007   -1.7693 C   0  0  0  0  0  0  0  0  0  0  0  0
   13.3521   -5.2516   -2.1729 H   0  0  0  0  0  0  0  0  0  0  0  0
   14.6428   -6.9515   -1.9598 C   0  0  0  0  0  0  0  0  0  0  0  0
   13.9730   -7.6242   -2.4891 H   0  0  0  0  0  0  0  0  0  0  0  0
  1  2  1  0
  2  3  2  0
  3  4  1  0
  3  5  1  0
  5  6  1  0
  5  7  2  0
  7  8  1  0
  8  9  1  0
  9 10  2  0
 10 11  1  0
 10 12  1  0
 12 13  1  0
 12 14  2  0
 14 15  1  0
 14 16  1  0
 16 17  1  0
 16 18  2  0
 18 19  1  0
  8 20  1  0
 20 21  2  0
 20 22  1  0
 22 23  1  0
 23 24  1  0
 23 25  1  0
 23 26  1  0
 22 27  1  0
 27 28  1  0
 28 29  1  0
 28 30  1  0
 27 31  2  0
 31 32  1  0
  7 33  1  0
 33 34  1  0
 33 35  2  0
 35 36  1  0
 35  2  1  0
 31  8  1  0
 18  9  1  0
M  CHG  1  31   1
M  END
>  <score>  (233) 
5.55262

$$$$

     RDKit          3D

 43 45  0  0  0  0  0  0  0  0999 V2000
   16.1039   -8.4667   -1.6146 H   0  0  0  0  0  0  0  0  0  0  0  0
   15.8576   -7.4158   -1.4821 C   0  0  0  0  0  0  0  0  0  0  0  0
   16.7376   -6.5666   -0.8063 C   0  0  0  0  0  0  0  0  0  0  0  0
   17.6695   -6.9591   -0.4112 H   0  0  0  0  0  0  0  0  0  0  0  0
   16.4055   -5.2206   -0.6114 C   0  0  0  0  0  0  0  0  0  0  0  0
   17.0742   -4.5700   -0.0549 H   0  0  0  0  0  0  0  0  0  0  0  0
   15.1911   -4.6963   -1.0803 C   0  0  0  0  0  0  0  0  0  0  0  0
   14.8269   -3.2400   -0.7711 C   0  0  0  0  0  0  0  0  0  0  0  0
   15.3879   -2.2225   -1.7656 C   0  0  0  0  0  0  0  0  0  0  0  0
   15.9381   -2.6163   -2.9959 C   0  0  0  0  0  0  0  0  0  0  0  0
   15.9869   -3.6724   -3.2295 H   0  0  0  0  0  0  0  0  0  0  0  0
   16.4114   -1.6685   -3.9193 C   0  0  0  0  0  0  0  0  0  0  0  0
   16.8499   -1.9873   -4.8616 H   0  0  0  0  0  0  0  0  0  0  0  0
   16.3178   -0.3028   -3.6221 C   0  0  0  0  0  0  0  0  0  0  0  0
   16.6830    0.4594   -4.3061 H   0  0  0  0  0  0  0  0  0  0  0  0
   15.7839    0.1073   -2.4017 C   0  0  0  0  0  0  0  0  0  0  0  0
   15.7382    1.4510   -2.0662 N   0  0  0  0  0  0  0  0  0  0  0  0
   15.7507    1.6884   -1.0812 H   0  0  0  0  0  0  0  0  0  0  0  0
   15.5476    2.4679   -2.9753 C   0  0  0  0  0  0  0  0  0  0  0  0
   15.2659    2.1979   -4.1370 O   0  0  0  0  0  0  0  0  0  0  0  0
   15.6833    3.9215   -2.5030 C   0  0  0  0  0  0  0  0  0  0  0  0
   14.7777    4.2644   -1.9891 H   0  0  0  0  0  0  0  0  0  0  0  0
   16.5335    4.0293   -1.8183 H   0  0  0  0  0  0  0  0  0  0  0  0
   15.8570    4.5763   -3.3569 H   0  0  0  0  0  0  0  0  0  0  0  0
   15.3244   -0.8415   -1.4904 C   0  0  0  0  0  0  0  0  0  0  0  0
   14.9066   -0.4791   -0.5578 H   0  0  0  0  0  0  0  0  0  0  0  0
   13.3091   -3.0292   -0.5958 C   0  0  0  0  0  0  0  0  0  0  0  0
   12.4490   -3.1200   -1.4656 O   0  0  0  0  0  0  0  0  0  0  0  0
   13.0283   -2.6810    0.7107 N   0  0  0  0  0  0  0  0  0  0  0  0
   11.7209   -2.3140    1.2701 C   0  0  0  0  0  0  0  0  0  0  0  0
   11.5052   -2.9211    2.1588 H   0  0  0  0  0  0  0  0  0  0  0  0
   11.7094   -1.2548    1.5584 H   0  0  0  0  0  0  0  0  0  0  0  0
   10.9175   -2.4765    0.5411 H   0  0  0  0  0  0  0  0  0  0  0  0
   14.2384   -2.6230    1.3702 C   0  0  0  0  0  0  0  0  0  0  0  0
   14.4068   -2.3057    2.6823 N   0  0  0  0  0  0  0  0  0  0  0  0
   13.5914   -2.1256    3.2640 H   0  0  0  0  0  0  0  0  0  0  0  0
   15.3421   -2.3392    3.0867 H   0  0  0  0  0  0  0  0  0  0  0  0
   15.2438   -2.9075    0.6083 N   0  0  0  0  0  4  0  0  0  0  0  0
   16.2106   -2.9519    0.9368 H   0  0  0  0  0  0  0  0  0  0  0  0
   14.3159   -5.5607   -1.7694 C   0  0  0  0  0  0  0  0  0  0  0  0
   13.3593   -5.1888   -2.1253 H   0  0  0  0  0  0  0  0  0  0  0  0
   14.6472   -6.9120   -1.9667 C   0  0  0  0  0  0  0  0  0  0  0  0
   13.9640   -7.5791   -2.4853 H   0  0  0  0  0  0  0  0  0  0  0  0
  1  2  1  0
  2  3  2  0
  3  4  1  0
  3  5  1  0
  5  6  1  0
  5  7  2  0
  7  8  1  0
  8  9  1  0
  9 10  2  0
 10 11  1  0
 10 12  1  0
 12 13  1  0
 12 14  2  0
 14 15  1  0
 14 16  1  0
 16 17  1  0
 17 18  1  0
 17 19  1  0
 19 20  2  0
 19 21  1  0
 21 22  1  0
 21 23  1  0
 21 24  1  0
 16 25  2  0
 25 26  1  0
  8 27  1  0
 27 28  2  0
 27 29  1  0
 29 30  1  0
 30 31  1  0
 30 32  1  0
 30 33  1  0
 29 34  1  0
 34 35  1  0
 35 36  1  0
 35 37  1  0
 34 38  2  0
 38 39  1  0
  7 40  1  0
 40 41  1  0
 40 42  2  0
 42 43  1  0
 42  2  1  0
 38  8  1  0
 25  9  1  0
M  CHG  1  38   1
M  END
>  <score>  (234) 
5.54784

$$$$

     RDKit          3D

 40 42  0  0  0  0  0  0  0  0999 V2000
   16.1264   -8.4901   -1.6107 H   0  0  0  0  0  0  0  0  0  0  0  0
   15.8541   -7.4464   -1.4696 C   0  0  0  0  0  0  0  0  0  0  0  0
   16.7263   -6.5875   -0.7984 C   0  0  0  0  0  0  0  0  0  0  0  0
   17.6757   -6.9552   -0.4196 H   0  0  0  0  0  0  0  0  0  0  0  0
   16.3846   -5.2439   -0.6088 C   0  0  0  0  0  0  0  0  0  0  0  0
   17.0694   -4.5962   -0.0698 H   0  0  0  0  0  0  0  0  0  0  0  0
   15.1652   -4.7206   -1.0730 C   0  0  0  0  0  0  0  0  0  0  0  0
   14.8076   -3.2491   -0.7873 C   0  0  0  0  0  0  0  0  0  0  0  0
   15.3904   -2.2394   -1.7847 C   0  0  0  0  0  0  0  0  0  0  0  0
   15.9463   -2.6401   -3.0103 C   0  0  0  0  0  0  0  0  0  0  0  0
   16.0062   -3.6951   -3.2687 H   0  0  0  0  0  0  0  0  0  0  0  0
   16.4205   -1.6864   -3.9193 C   0  0  0  0  0  0  0  0  0  0  0  0
   16.8503   -2.0039   -4.8623 H   0  0  0  0  0  0  0  0  0  0  0  0
   16.3484   -0.3229   -3.6312 C   0  0  0  0  0  0  0  0  0  0  0  0
   16.6980    0.3901   -4.3742 H   0  0  0  0  0  0  0  0  0  0  0  0
   15.8104    0.1138   -2.4106 C   0  0  0  0  0  0  0  0  0  0  0  0
   15.7278    1.5524   -2.0950 C   0  0  0  0  0  0  0  0  0  0  0  0
   14.9485    2.0130   -1.2847 O   0  0  0  0  0  0  0  0  0  0  0  0
   16.4733    2.5129   -2.7186 N   0  0  0  0  0  0  0  0  0  0  0  0
   16.3317    3.4861   -2.4498 H   0  0  0  0  0  0  0  0  0  0  0  0
   17.2446    2.2257   -3.3010 H   0  0  0  0  0  0  0  0  0  0  0  0
   15.3254   -0.8584   -1.5081 C   0  0  0  0  0  0  0  0  0  0  0  0
   14.8948   -0.5452   -0.5593 H   0  0  0  0  0  0  0  0  0  0  0  0
   13.2926   -3.0224   -0.6087 C   0  0  0  0  0  0  0  0  0  0  0  0
   12.4235   -3.0820   -1.4769 O   0  0  0  0  0  0  0  0  0  0  0  0
   13.0198   -2.6712    0.6999 N   0  0  0  0  0  0  0  0  0  0  0  0
   11.7187   -2.3128    1.2622 C   0  0  0  0  0  0  0  0  0  0  0  0
   11.6930   -1.2604    1.5595 H   0  0  0  0  0  0  0  0  0  0  0  0
   11.5006   -2.9191    2.1453 H   0  0  0  0  0  0  0  0  0  0  0  0
   10.9152   -2.4748    0.5393 H   0  0  0  0  0  0  0  0  0  0  0  0
   14.2238   -2.6298    1.3657 C   0  0  0  0  0  0  0  0  0  0  0  0
   14.3917   -2.3397    2.6897 N   0  0  0  0  0  0  0  0  0  0  0  0
   15.3261   -2.3566    3.0958 H   0  0  0  0  0  0  0  0  0  0  0  0
   13.5802   -2.1259    3.2659 H   0  0  0  0  0  0  0  0  0  0  0  0
   15.2181   -2.9044    0.5897 N   0  0  0  0  0  4  0  0  0  0  0  0
   16.1901   -2.8965    0.8964 H   0  0  0  0  0  0  0  0  0  0  0  0
   14.2996   -5.5969   -1.7686 C   0  0  0  0  0  0  0  0  0  0  0  0
   13.3519   -5.2473   -2.1692 H   0  0  0  0  0  0  0  0  0  0  0  0
   14.6428   -6.9483   -1.9604 C   0  0  0  0  0  0  0  0  0  0  0  0
   13.9731   -7.6220   -2.4887 H   0  0  0  0  0  0  0  0  0  0  0  0
  1  2  1  0
  2  3  2  0
  3  4  1  0
  3  5  1  0
  5  6  1  0
  5  7  2  0
  7  8  1  0
  8  9  1  0
  9 10  2  0
 10 11  1  0
 10 12  1  0
 12 13  1  0
 12 14  2  0
 14 15  1  0
 14 16  1  0
 16 17  1  0
 17 18  2  0
 17 19  1  0
 19 20  1  0
 19 21  1  0
 16 22  2  0
 22 23  1  0
  8 24  1  0
 24 25  2  0
 24 26  1  0
 26 27  1  0
 27 28  1  0
 27 29  1  0
 27 30  1  0
 26 31  1  0
 31 32  1  0
 32 33  1  0
 32 34  1  0
 31 35  2  0
 35 36  1  0
  7 37  1  0
 37 38  1  0
 37 39  2  0
 39 40  1  0
 39  2  1  0
 35  8  1  0
 22  9  1  0
M  CHG  1  35   1
M  END
>  <score>  (235) 
5.54715

$$$$

     RDKit          3D

 46 48  0  0  0  0  0  0  0  0999 V2000
   16.1259   -8.4898   -1.6109 H   0  0  0  0  0  0  0  0  0  0  0  0
   15.8540   -7.4456   -1.4696 C   0  0  0  0  0  0  0  0  0  0  0  0
   16.7267   -6.5865   -0.7991 C   0  0  0  0  0  0  0  0  0  0  0  0
   17.6756   -6.9556   -0.4194 H   0  0  0  0  0  0  0  0  0  0  0  0
   16.3846   -5.2434   -0.6084 C   0  0  0  0  0  0  0  0  0  0  0  0
   17.0698   -4.5955   -0.0695 H   0  0  0  0  0  0  0  0  0  0  0  0
   15.1661   -4.7202   -1.0734 C   0  0  0  0  0  0  0  0  0  0  0  0
   14.8093   -3.2508   -0.7877 C   0  0  0  0  0  0  0  0  0  0  0  0
   15.3880   -2.2424   -1.7833 C   0  0  0  0  0  0  0  0  0  0  0  0
   15.9425   -2.6395   -3.0111 C   0  0  0  0  0  0  0  0  0  0  0  0
   16.0057   -3.6951   -3.2681 H   0  0  0  0  0  0  0  0  0  0  0  0
   16.4214   -1.6857   -3.9165 C   0  0  0  0  0  0  0  0  0  0  0  0
   16.8572   -2.0027   -4.8596 H   0  0  0  0  0  0  0  0  0  0  0  0
   16.3407   -0.3229   -3.6210 C   0  0  0  0  0  0  0  0  0  0  0  0
   16.7124    0.3914   -4.3555 H   0  0  0  0  0  0  0  0  0  0  0  0
   15.7750    0.1130   -2.4059 C   0  0  0  0  0  0  0  0  0  0  0  0
   15.7064    1.5600   -2.0819 C   0  0  0  0  0  0  0  0  0  0  0  0
   16.4543    2.3566   -2.6255 O   0  0  0  0  0  0  0  0  0  0  0  0
   14.8054    2.0815   -1.1723 N   0  0  0  0  0  0  0  0  0  0  0  0
   14.0786    1.4570   -0.8546 H   0  0  0  0  0  0  0  0  0  0  0  0
   14.8175    3.4556   -0.6703 C   0  0  0  0  0  0  0  0  0  0  0  0
   13.8780    3.6794   -0.1548 H   0  0  0  0  0  0  0  0  0  0  0  0
   14.9079    4.1601   -1.5016 H   0  0  0  0  0  0  0  0  0  0  0  0
   15.9746    3.6471    0.3019 C   0  0  0  0  0  0  0  0  0  0  0  0
   16.9276    3.4676   -0.1980 H   0  0  0  0  0  0  0  0  0  0  0  0
   15.9731    4.6656    0.6928 H   0  0  0  0  0  0  0  0  0  0  0  0
   15.8869    2.9572    1.1433 H   0  0  0  0  0  0  0  0  0  0  0  0
   15.3166   -0.8642   -1.4999 C   0  0  0  0  0  0  0  0  0  0  0  0
   14.9071   -0.5512   -0.5439 H   0  0  0  0  0  0  0  0  0  0  0  0
   13.2923   -3.0258   -0.6071 C   0  0  0  0  0  0  0  0  0  0  0  0
   12.4243   -3.0805   -1.4757 O   0  0  0  0  0  0  0  0  0  0  0  0
   13.0206   -2.6709    0.6992 N   0  0  0  0  0  0  0  0  0  0  0  0
   11.7185   -2.3128    1.2629 C   0  0  0  0  0  0  0  0  0  0  0  0
   10.9142   -2.4767    0.5390 H   0  0  0  0  0  0  0  0  0  0  0  0
   11.6925   -1.2596    1.5588 H   0  0  0  0  0  0  0  0  0  0  0  0
   11.5016   -2.9191    2.1468 H   0  0  0  0  0  0  0  0  0  0  0  0
   14.2250   -2.6301    1.3654 C   0  0  0  0  0  0  0  0  0  0  0  0
   14.3927   -2.3368    2.6903 N   0  0  0  0  0  0  0  0  0  0  0  0
   13.5799   -2.1271    3.2664 H   0  0  0  0  0  0  0  0  0  0  0  0
   15.3266   -2.3576    3.0953 H   0  0  0  0  0  0  0  0  0  0  0  0
   15.2199   -2.9039    0.5899 N   0  0  0  0  0  4  0  0  0  0  0  0
   16.1903   -2.8987    0.8972 H   0  0  0  0  0  0  0  0  0  0  0  0
   14.3002   -5.5962   -1.7687 C   0  0  0  0  0  0  0  0  0  0  0  0
   13.3522   -5.2460   -2.1681 H   0  0  0  0  0  0  0  0  0  0  0  0
   14.6429   -6.9474   -1.9602 C   0  0  0  0  0  0  0  0  0  0  0  0
   13.9731   -7.6212   -2.4888 H   0  0  0  0  0  0  0  0  0  0  0  0
  1  2  1  0
  2  3  2  0
  3  4  1  0
  3  5  1  0
  5  6  1  0
  5  7  2  0
  7  8  1  0
  8  9  1  0
  9 10  2  0
 10 11  1  0
 10 12  1  0
 12 13  1  0
 12 14  2  0
 14 15  1  0
 14 16  1  0
 16 17  1  0
 17 18  2  0
 17 19  1  0
 19 20  1  0
 19 21  1  0
 21 22  1  0
 21 23  1  0
 21 24  1  0
 24 25  1  0
 24 26  1  0
 24 27  1  0
 16 28  2  0
 28 29  1  0
  8 30  1  0
 30 31  2  0
 30 32  1  0
 32 33  1  0
 33 34  1  0
 33 35  1  0
 33 36  1  0
 32 37  1  0
 37 38  1  0
 38 39  1  0
 38 40  1  0
 37 41  2  0
 41 42  1  0
  7 43  1  0
 43 44  1  0
 43 45  2  0
 45 46  1  0
 45  2  1  0
 41  8  1  0
 28  9  1  0
M  CHG  1  41   1
M  END
>  <score>  (236) 
5.54433

$$$$

     RDKit          3D

 49 52  0  0  0  0  0  0  0  0999 V2000
   16.0983   -8.4077   -1.6735 H   0  0  0  0  0  0  0  0  0  0  0  0
   15.8650   -7.3613   -1.5003 C   0  0  0  0  0  0  0  0  0  0  0  0
   16.7680   -6.5462   -0.8081 C   0  0  0  0  0  0  0  0  0  0  0  0
   17.7088   -6.9519   -0.4455 H   0  0  0  0  0  0  0  0  0  0  0  0
   16.4569   -5.2023   -0.5717 C   0  0  0  0  0  0  0  0  0  0  0  0
   17.1611   -4.5755   -0.0323 H   0  0  0  0  0  0  0  0  0  0  0  0
   15.2377   -4.6585   -1.0059 C   0  0  0  0  0  0  0  0  0  0  0  0
   14.8769   -3.2106   -0.7079 C   0  0  0  0  0  0  0  0  0  0  0  0
   15.4166   -2.2294   -1.7414 C   0  0  0  0  0  0  0  0  0  0  0  0
   15.9376   -2.6624   -2.9709 C   0  0  0  0  0  0  0  0  0  0  0  0
   15.9698   -3.7248   -3.1939 H   0  0  0  0  0  0  0  0  0  0  0  0
   16.4226   -1.7369   -3.8973 C   0  0  0  0  0  0  0  0  0  0  0  0
   16.8481   -2.0858   -4.8293 H   0  0  0  0  0  0  0  0  0  0  0  0
   16.3590   -0.3668   -3.6272 C   0  0  0  0  0  0  0  0  0  0  0  0
   16.7641    0.3374   -4.3471 H   0  0  0  0  0  0  0  0  0  0  0  0
   15.7825    0.0946   -2.4343 C   0  0  0  0  0  0  0  0  0  0  0  0
   15.7148    1.5817   -2.1231 C   0  0  0  0  0  0  0  0  0  0  0  0
   16.2122    2.1457   -2.9168 H   0  0  0  0  0  0  0  0  0  0  0  0
   14.2952    2.1711   -1.9762 C   0  0  0  0  0  0  0  0  0  0  0  0
   13.5156    1.4078   -2.0482 H   0  0  0  0  0  0  0  0  0  0  0  0
   14.1155    2.9146   -2.7585 H   0  0  0  0  0  0  0  0  0  0  0  0
   14.2136    2.8862   -0.6318 C   0  0  0  0  0  0  0  0  0  0  0  0
   13.5818    2.3325    0.0683 H   0  0  0  0  0  0  0  0  0  0  0  0
   13.7693    3.8808   -0.7331 H   0  0  0  0  0  0  0  0  0  0  0  0
   15.6457    2.9840   -0.1332 C   0  0  0  0  0  0  0  0  0  0  0  0
   15.7236    2.9387    0.9583 H   0  0  0  0  0  0  0  0  0  0  0  0
   16.0436    3.9436   -0.4637 H   0  0  0  0  0  0  0  0  0  0  0  0
   16.4339    1.8727   -0.8085 C   0  0  0  0  0  0  0  0  0  0  0  0
   17.4606    2.2001   -0.9940 H   0  0  0  0  0  0  0  0  0  0  0  0
   16.4627    0.9786   -0.1721 H   0  0  0  0  0  0  0  0  0  0  0  0
   15.3365   -0.8472   -1.4946 C   0  0  0  0  0  0  0  0  0  0  0  0
   14.9367   -0.4921   -0.5473 H   0  0  0  0  0  0  0  0  0  0  0  0
   13.3579   -3.0196   -0.5347 C   0  0  0  0  0  0  0  0  0  0  0  0
   12.4868   -3.1927   -1.3860 O   0  0  0  0  0  0  0  0  0  0  0  0
   13.0877   -2.6188    0.7582 N   0  0  0  0  0  0  0  0  0  0  0  0
   11.7749   -2.2891    1.3118 C   0  0  0  0  0  0  0  0  0  0  0  0
   11.5647   -2.8941    2.2005 H   0  0  0  0  0  0  0  0  0  0  0  0
   10.9825   -2.4789    0.5790 H   0  0  0  0  0  0  0  0  0  0  0  0
   11.7325   -1.2310    1.5904 H   0  0  0  0  0  0  0  0  0  0  0  0
   14.2926   -2.5504    1.4205 C   0  0  0  0  0  0  0  0  0  0  0  0
   14.4687   -2.2122    2.7283 N   0  0  0  0  0  0  0  0  0  0  0  0
   13.6537   -2.0958    3.3290 H   0  0  0  0  0  0  0  0  0  0  0  0
   15.4020   -2.2694    3.1301 H   0  0  0  0  0  0  0  0  0  0  0  0
   15.2965   -2.8595    0.6657 N   0  0  0  0  0  4  0  0  0  0  0  0
   16.2532   -2.9553    1.0079 H   0  0  0  0  0  0  0  0  0  0  0  0
   14.3510   -5.4826   -1.7215 C   0  0  0  0  0  0  0  0  0  0  0  0
   13.4111   -5.0795   -2.0860 H   0  0  0  0  0  0  0  0  0  0  0  0
   14.6597   -6.8256   -1.9670 C   0  0  0  0  0  0  0  0  0  0  0  0
   13.9559   -7.4519   -2.5089 H   0  0  0  0  0  0  0  0  0  0  0  0
  1  2  1  0
  2  3  2  0
  3  4  1  0
  3  5  1  0
  5  6  1  0
  5  7  2  0
  7  8  1  0
  8  9  1  0
  9 10  2  0
 10 11  1  0
 10 12  1  0
 12 13  1  0
 12 14  2  0
 14 15  1  0
 14 16  1  0
 16 17  1  0
 17 18  1  0
 17 19  1  0
 19 20  1  0
 19 21  1  0
 19 22  1  0
 22 23  1  0
 22 24  1  0
 22 25  1  0
 25 26  1  0
 25 27  1  0
 25 28  1  0
 28 29  1  0
 28 30  1  0
 16 31  2  0
 31 32  1  0
  8 33  1  0
 33 34  2  0
 33 35  1  0
 35 36  1  0
 36 37  1  0
 36 38  1  0
 36 39  1  0
 35 40  1  0
 40 41  1  0
 41 42  1  0
 41 43  1  0
 40 44  2  0
 44 45  1  0
  7 46  1  0
 46 47  1  0
 46 48  2  0
 48 49  1  0
 48  2  1  0
 44  8  1  0
 31  9  1  0
 28 17  1  0
M  CHG  1  44   1
M  END
>  <score>  (237) 
5.54008

$$$$

     RDKit          3D

 49 51  0  0  0  0  0  0  0  0999 V2000
   16.1046   -8.4426   -1.6781 H   0  0  0  0  0  0  0  0  0  0  0  0
   15.8645   -7.3991   -1.5060 C   0  0  0  0  0  0  0  0  0  0  0  0
   16.7666   -6.5778   -0.8229 C   0  0  0  0  0  0  0  0  0  0  0  0
   17.7042   -6.9858   -0.4550 H   0  0  0  0  0  0  0  0  0  0  0  0
   16.4551   -5.2324   -0.6026 C   0  0  0  0  0  0  0  0  0  0  0  0
   17.1534   -4.6005   -0.0602 H   0  0  0  0  0  0  0  0  0  0  0  0
   15.2381   -4.6920   -1.0502 C   0  0  0  0  0  0  0  0  0  0  0  0
   14.8740   -3.2445   -0.7533 C   0  0  0  0  0  0  0  0  0  0  0  0
   15.3568   -2.2542   -1.7993 C   0  0  0  0  0  0  0  0  0  0  0  0
   15.9165   -2.6667   -3.0190 C   0  0  0  0  0  0  0  0  0  0  0  0
   16.0005   -3.7286   -3.2337 H   0  0  0  0  0  0  0  0  0  0  0  0
   16.3953   -1.7212   -3.9336 C   0  0  0  0  0  0  0  0  0  0  0  0
   16.8657   -2.0478   -4.8551 H   0  0  0  0  0  0  0  0  0  0  0  0
   16.3026   -0.3548   -3.6449 C   0  0  0  0  0  0  0  0  0  0  0  0
   16.6998    0.3793   -4.3374 H   0  0  0  0  0  0  0  0  0  0  0  0
   15.7221    0.0781   -2.4469 C   0  0  0  0  0  0  0  0  0  0  0  0
   15.6445    1.5500   -2.1133 C   0  0  0  0  0  0  0  0  0  0  0  0
   16.2768    2.1217   -2.7995 H   0  0  0  0  0  0  0  0  0  0  0  0
   16.0311    1.7104   -1.1013 H   0  0  0  0  0  0  0  0  0  0  0  0
   14.2085    2.0692   -2.1845 C   0  0  0  0  0  0  0  0  0  0  0  0
   13.5642    1.4492   -1.5498 H   0  0  0  0  0  0  0  0  0  0  0  0
   14.1771    3.0950   -1.7986 H   0  0  0  0  0  0  0  0  0  0  0  0
   13.7500    2.0457   -3.5691 N   0  0  0  0  0  0  0  0  0  0  0  0
   14.3848    1.7284   -4.2924 H   0  0  0  0  0  0  0  0  0  0  0  0
   12.4681    2.3699   -3.9531 C   0  0  0  0  0  0  0  0  0  0  0  0
   11.6394    2.7156   -3.1310 O   0  0  0  0  0  0  0  0  0  0  0  0
   12.0904    2.2938   -5.4181 C   0  0  0  0  0  0  0  0  0  0  0  0
   11.0153    2.4547   -5.5321 H   0  0  0  0  0  0  0  0  0  0  0  0
   12.6277    3.0607   -5.9796 H   0  0  0  0  0  0  0  0  0  0  0  0
   12.3469    1.3110   -5.8184 H   0  0  0  0  0  0  0  0  0  0  0  0
   15.2476   -0.8772   -1.5411 C   0  0  0  0  0  0  0  0  0  0  0  0
   14.8093   -0.5494   -0.6022 H   0  0  0  0  0  0  0  0  0  0  0  0
   13.3592   -3.0840   -0.5117 C   0  0  0  0  0  0  0  0  0  0  0  0
   12.4363   -3.2821   -1.2971 O   0  0  0  0  0  0  0  0  0  0  0  0
   13.1694   -2.6825    0.7926 N   0  0  0  0  0  0  0  0  0  0  0  0
   11.9021   -2.2828    1.3864 C   0  0  0  0  0  0  0  0  0  0  0  0
   11.8800   -2.5247    2.4571 H   0  0  0  0  0  0  0  0  0  0  0  0
   11.7462   -1.2012    1.2744 H   0  0  0  0  0  0  0  0  0  0  0  0
   11.0850   -2.8200    0.8905 H   0  0  0  0  0  0  0  0  0  0  0  0
   14.3998   -2.5542    1.3781 C   0  0  0  0  0  0  0  0  0  0  0  0
   14.5555   -2.1600    2.6688 N   0  0  0  0  0  0  0  0  0  0  0  0
   15.4977   -2.1515    3.0489 H   0  0  0  0  0  0  0  0  0  0  0  0
   13.7714   -2.3180    3.3008 H   0  0  0  0  0  0  0  0  0  0  0  0
   15.3691   -2.8496    0.5817 N   0  0  0  0  0  4  0  0  0  0  0  0
   16.3578   -2.8053    0.8397 H   0  0  0  0  0  0  0  0  0  0  0  0
   14.3492   -5.5270   -1.7534 C   0  0  0  0  0  0  0  0  0  0  0  0
   13.4030   -5.1344   -2.1153 H   0  0  0  0  0  0  0  0  0  0  0  0
   14.6597   -6.8722   -1.9786 C   0  0  0  0  0  0  0  0  0  0  0  0
   13.9619   -7.5118   -2.5119 H   0  0  0  0  0  0  0  0  0  0  0  0
  1  2  1  0
  2  3  2  0
  3  4  1  0
  3  5  1  0
  5  6  1  0
  5  7  2  0
  7  8  1  0
  8  9  1  0
  9 10  2  0
 10 11  1  0
 10 12  1  0
 12 13  1  0
 12 14  2  0
 14 15  1  0
 14 16  1  0
 16 17  1  0
 17 18  1  0
 17 19  1  0
 17 20  1  0
 20 21  1  0
 20 22  1  0
 20 23  1  0
 23 24  1  0
 23 25  1  0
 25 26  2  0
 25 27  1  0
 27 28  1  0
 27 29  1  0
 27 30  1  0
 16 31  2  0
 31 32  1  0
  8 33  1  0
 33 34  2  0
 33 35  1  0
 35 36  1  0
 36 37  1  0
 36 38  1  0
 36 39  1  0
 35 40  1  0
 40 41  1  0
 41 42  1  0
 41 43  1  0
 40 44  2  0
 44 45  1  0
  7 46  1  0
 46 47  1  0
 46 48  2  0
 48 49  1  0
 48  2  1  0
 44  8  1  0
 31  9  1  0
M  CHG  1  44   1
M  END
>  <score>  (238) 
5.53785

$$$$

     RDKit          3D

 48 50  0  0  0  0  0  0  0  0999 V2000
   16.1079   -8.4416   -1.6783 H   0  0  0  0  0  0  0  0  0  0  0  0
   15.8632   -7.3967   -1.5031 C   0  0  0  0  0  0  0  0  0  0  0  0
   16.7641   -6.5722   -0.8243 C   0  0  0  0  0  0  0  0  0  0  0  0
   17.7051   -6.9748   -0.4563 H   0  0  0  0  0  0  0  0  0  0  0  0
   16.4532   -5.2234   -0.6099 C   0  0  0  0  0  0  0  0  0  0  0  0
   17.1472   -4.5949   -0.0601 H   0  0  0  0  0  0  0  0  0  0  0  0
   15.2350   -4.6827   -1.0581 C   0  0  0  0  0  0  0  0  0  0  0  0
   14.8666   -3.2339   -0.7553 C   0  0  0  0  0  0  0  0  0  0  0  0
   15.3603   -2.2322   -1.7868 C   0  0  0  0  0  0  0  0  0  0  0  0
   15.9191   -2.6428   -3.0050 C   0  0  0  0  0  0  0  0  0  0  0  0
   15.9981   -3.7031   -3.2304 H   0  0  0  0  0  0  0  0  0  0  0  0
   16.4033   -1.6991   -3.9186 C   0  0  0  0  0  0  0  0  0  0  0  0
   16.8663   -2.0220   -4.8461 H   0  0  0  0  0  0  0  0  0  0  0  0
   16.3164   -0.3323   -3.6212 C   0  0  0  0  0  0  0  0  0  0  0  0
   16.6998    0.4001   -4.3268 H   0  0  0  0  0  0  0  0  0  0  0  0
   15.7375    0.1140   -2.4237 C   0  0  0  0  0  0  0  0  0  0  0  0
   15.6527    1.6101   -2.1245 C   0  0  0  0  0  0  0  0  0  0  0  0
   17.0531    2.2257   -2.1603 C   0  0  0  0  0  0  0  0  0  0  0  0
   16.9977    3.3181   -2.1219 H   0  0  0  0  0  0  0  0  0  0  0  0
   17.5706    1.9262   -3.0736 H   0  0  0  0  0  0  0  0  0  0  0  0
   17.6372    1.8898   -1.3050 H   0  0  0  0  0  0  0  0  0  0  0  0
   14.7978    2.2786   -3.2013 C   0  0  0  0  0  0  0  0  0  0  0  0
   14.7306    3.3560   -3.0228 H   0  0  0  0  0  0  0  0  0  0  0  0
   13.7880    1.8606   -3.1982 H   0  0  0  0  0  0  0  0  0  0  0  0
   15.2410    2.1151   -4.1873 H   0  0  0  0  0  0  0  0  0  0  0  0
   15.0417    1.9090   -0.7494 C   0  0  0  0  0  0  0  0  0  0  0  0
   15.6306    1.4317    0.0402 H   0  0  0  0  0  0  0  0  0  0  0  0
   14.0173    1.5304   -0.7020 H   0  0  0  0  0  0  0  0  0  0  0  0
   15.0220    2.9872   -0.5596 H   0  0  0  0  0  0  0  0  0  0  0  0
   15.2594   -0.8530   -1.5238 C   0  0  0  0  0  0  0  0  0  0  0  0
   14.8280   -0.5311   -0.5832 H   0  0  0  0  0  0  0  0  0  0  0  0
   13.3491   -3.0703   -0.5154 C   0  0  0  0  0  0  0  0  0  0  0  0
   12.4285   -3.2543   -1.3086 O   0  0  0  0  0  0  0  0  0  0  0  0
   13.1594   -2.6681    0.7914 N   0  0  0  0  0  0  0  0  0  0  0  0
   11.8880   -2.2791    1.3881 C   0  0  0  0  0  0  0  0  0  0  0  0
   11.8615   -2.5189    2.4569 H   0  0  0  0  0  0  0  0  0  0  0  0
   11.7301   -1.2005    1.2789 H   0  0  0  0  0  0  0  0  0  0  0  0
   11.0676   -2.8100    0.8900 H   0  0  0  0  0  0  0  0  0  0  0  0
   14.3966   -2.5378    1.3768 C   0  0  0  0  0  0  0  0  0  0  0  0
   14.5719   -2.1344    2.6640 N   0  0  0  0  0  0  0  0  0  0  0  0
   13.8032   -2.2889    3.3102 H   0  0  0  0  0  0  0  0  0  0  0  0
   15.5232   -2.1288    3.0188 H   0  0  0  0  0  0  0  0  0  0  0  0
   15.3683   -2.8501    0.5853 N   0  0  0  0  0  4  0  0  0  0  0  0
   16.3598   -2.7890    0.8309 H   0  0  0  0  0  0  0  0  0  0  0  0
   14.3484   -5.5207   -1.7592 C   0  0  0  0  0  0  0  0  0  0  0  0
   13.3993   -5.1339   -2.1185 H   0  0  0  0  0  0  0  0  0  0  0  0
   14.6582   -6.8698   -1.9798 C   0  0  0  0  0  0  0  0  0  0  0  0
   13.9637   -7.5111   -2.5136 H   0  0  0  0  0  0  0  0  0  0  0  0
  1  2  1  0
  2  3  2  0
  3  4  1  0
  3  5  1  0
  5  6  1  0
  5  7  2  0
  7  8  1  0
  8  9  1  0
  9 10  2  0
 10 11  1  0
 10 12  1  0
 12 13  1  0
 12 14  2  0
 14 15  1  0
 14 16  1  0
 16 17  1  0
 17 18  1  0
 18 19  1  0
 18 20  1  0
 18 21  1  0
 17 22  1  0
 22 23  1  0
 22 24  1  0
 22 25  1  0
 17 26  1  0
 26 27  1  0
 26 28  1  0
 26 29  1  0
 16 30  2  0
 30 31  1  0
  8 32  1  0
 32 33  2  0
 32 34  1  0
 34 35  1  0
 35 36  1  0
 35 37  1  0
 35 38  1  0
 34 39  1  0
 39 40  1  0
 40 41  1  0
 40 42  1  0
 39 43  2  0
 43 44  1  0
  7 45  1  0
 45 46  1  0
 45 47  2  0
 47 48  1  0
 47  2  1  0
 43  8  1  0
 30  9  1  0
M  CHG  1  43   1
M  END
>  <score>  (239) 
5.53284

$$$$

     RDKit          3D

 58 61  0  0  0  0  0  0  0  0999 V2000
   16.1043   -8.4217   -1.6854 H   0  0  0  0  0  0  0  0  0  0  0  0
   15.8619   -7.3780   -1.5107 C   0  0  0  0  0  0  0  0  0  0  0  0
   16.7648   -6.5578   -0.8295 C   0  0  0  0  0  0  0  0  0  0  0  0
   17.7044   -6.9622   -0.4657 H   0  0  0  0  0  0  0  0  0  0  0  0
   16.4550   -5.2111   -0.6050 C   0  0  0  0  0  0  0  0  0  0  0  0
   17.1509   -4.5826   -0.0556 H   0  0  0  0  0  0  0  0  0  0  0  0
   15.2383   -4.6668   -1.0503 C   0  0  0  0  0  0  0  0  0  0  0  0
   14.8734   -3.2139   -0.7339 C   0  0  0  0  0  0  0  0  0  0  0  0
   15.3518   -2.2043   -1.7722 C   0  0  0  0  0  0  0  0  0  0  0  0
   15.9157   -2.6118   -2.9897 C   0  0  0  0  0  0  0  0  0  0  0  0
   16.0041   -3.6715   -3.2073 H   0  0  0  0  0  0  0  0  0  0  0  0
   16.3965   -1.6712   -3.9060 C   0  0  0  0  0  0  0  0  0  0  0  0
   16.8638   -1.9980   -4.8301 H   0  0  0  0  0  0  0  0  0  0  0  0
   16.3016   -0.3064   -3.6130 C   0  0  0  0  0  0  0  0  0  0  0  0
   16.6864    0.4373   -4.3024 H   0  0  0  0  0  0  0  0  0  0  0  0
   15.7206    0.1369   -2.4234 C   0  0  0  0  0  0  0  0  0  0  0  0
   15.7058    1.4959   -2.2002 O   0  0  0  0  0  0  0  0  0  0  0  0
   15.0787    2.0022   -1.0076 C   0  0  0  0  0  0  0  0  0  0  0  0
   15.3747    1.4221   -0.1240 H   0  0  0  0  0  0  0  0  0  0  0  0
   15.4203    3.0318   -0.8523 H   0  0  0  0  0  0  0  0  0  0  0  0
   13.5565    1.9989   -1.1668 C   0  0  0  0  0  0  0  0  0  0  0  0
   13.1871    0.9782   -1.0533 H   0  0  0  0  0  0  0  0  0  0  0  0
   13.2878    2.3316   -2.1719 H   0  0  0  0  0  0  0  0  0  0  0  0
   12.8792    2.9200   -0.1456 C   0  0  0  0  0  0  0  0  0  0  0  0
   13.0584    3.9647   -0.4193 H   0  0  0  0  0  0  0  0  0  0  0  0
   13.3046    2.7714    0.8500 H   0  0  0  0  0  0  0  0  0  0  0  0
   11.4306    2.6544   -0.0896 N   0  0  0  0  0  0  0  0  0  0  0  0
   10.6213    3.1239   -1.2174 C   0  0  0  0  0  0  0  0  0  0  0  0
    9.6729    3.5225   -0.8480 H   0  0  0  0  0  0  0  0  0  0  0  0
   11.1188    3.9070   -1.7972 H   0  0  0  0  0  0  0  0  0  0  0  0
   10.3823    1.8727   -2.0434 C   0  0  0  0  0  0  0  0  0  0  0  0
   11.1947    1.7496   -2.7637 H   0  0  0  0  0  0  0  0  0  0  0  0
    9.4379    1.9264   -2.5912 H   0  0  0  0  0  0  0  0  0  0  0  0
   10.3970    0.7207   -1.0431 C   0  0  0  0  0  0  0  0  0  0  0  0
   10.9701   -0.1245   -1.4336 H   0  0  0  0  0  0  0  0  0  0  0  0
    9.3813    0.3784   -0.8297 H   0  0  0  0  0  0  0  0  0  0  0  0
   11.0336    1.2714    0.2258 C   0  0  0  0  0  0  0  0  0  0  0  0
   10.3080    1.2665    1.0428 H   0  0  0  0  0  0  0  0  0  0  0  0
   11.8864    0.6579    0.5323 H   0  0  0  0  0  0  0  0  0  0  0  0
   15.2367   -0.8203   -1.5153 C   0  0  0  0  0  0  0  0  0  0  0  0
   14.8026   -0.4771   -0.5828 H   0  0  0  0  0  0  0  0  0  0  0  0
   13.3563   -3.0479   -0.5026 C   0  0  0  0  0  0  0  0  0  0  0  0
   12.4322   -3.2520   -1.2911 O   0  0  0  0  0  0  0  0  0  0  0  0
   13.1671   -2.6040    0.7926 N   0  0  0  0  0  0  0  0  0  0  0  0
   11.8852   -2.2709    1.4035 C   0  0  0  0  0  0  0  0  0  0  0  0
   12.0034   -1.4747    2.1484 H   0  0  0  0  0  0  0  0  0  0  0  0
   11.4533   -3.1510    1.9010 H   0  0  0  0  0  0  0  0  0  0  0  0
   11.1922   -1.9051    0.6361 H   0  0  0  0  0  0  0  0  0  0  0  0
   14.3930   -2.5088    1.4021 C   0  0  0  0  0  0  0  0  0  0  0  0
   14.5519   -2.1257    2.6962 N   0  0  0  0  0  0  0  0  0  0  0  0
   13.7564   -2.2381    3.3187 H   0  0  0  0  0  0  0  0  0  0  0  0
   15.4899   -2.1548    3.0845 H   0  0  0  0  0  0  0  0  0  0  0  0
   15.3655   -2.8299    0.6128 N   0  0  0  0  0  4  0  0  0  0  0  0
   16.3559   -2.7819    0.8721 H   0  0  0  0  0  0  0  0  0  0  0  0
   14.3475   -5.5002   -1.7548 C   0  0  0  0  0  0  0  0  0  0  0  0
   13.3986   -5.1109   -2.1134 H   0  0  0  0  0  0  0  0  0  0  0  0
   14.6578   -6.8478   -1.9793 C   0  0  0  0  0  0  0  0  0  0  0  0
   13.9653   -7.4884   -2.5154 H   0  0  0  0  0  0  0  0  0  0  0  0
  1  2  1  0
  2  3  2  0
  3  4  1  0
  3  5  1  0
  5  6  1  0
  5  7  2  0
  7  8  1  0
  8  9  1  0
  9 10  2  0
 10 11  1  0
 10 12  1  0
 12 13  1  0
 12 14  2  0
 14 15  1  0
 14 16  1  0
 16 17  1  0
 17 18  1  0
 18 19  1  0
 18 20  1  0
 18 21  1  0
 21 22  1  0
 21 23  1  0
 21 24  1  0
 24 25  1  0
 24 26  1  0
 24 27  1  0
 27 28  1  0
 28 29  1  0
 28 30  1  0
 28 31  1  0
 31 32  1  0
 31 33  1  0
 31 34  1  0
 34 35  1  0
 34 36  1  0
 34 37  1  0
 37 38  1  0
 37 39  1  0
 16 40  2  0
 40 41  1  0
  8 42  1  0
 42 43  2  0
 42 44  1  0
 44 45  1  0
 45 46  1  0
 45 47  1  0
 45 48  1  0
 44 49  1  0
 49 50  1  0
 50 51  1  0
 50 52  1  0
 49 53  2  0
 53 54  1  0
  7 55  1  0
 55 56  1  0
 55 57  2  0
 57 58  1  0
 57  2  1  0
 53  8  1  0
 40  9  1  0
 37 27  1  0
M  CHG  1  53   1
M  END
>  <score>  (240) 
5.53235

$$$$

     RDKit          3D

 46 49  0  0  0  0  0  0  0  0999 V2000
   16.1659   -8.3462   -1.7071 H   0  0  0  0  0  0  0  0  0  0  0  0
   15.9154   -7.3117   -1.4994 C   0  0  0  0  0  0  0  0  0  0  0  0
   16.8058   -6.5023   -0.7827 C   0  0  0  0  0  0  0  0  0  0  0  0
   17.7583   -6.8995   -0.4397 H   0  0  0  0  0  0  0  0  0  0  0  0
   16.4677   -5.1735   -0.5069 C   0  0  0  0  0  0  0  0  0  0  0  0
   17.1590   -4.5464    0.0496 H   0  0  0  0  0  0  0  0  0  0  0  0
   15.2390   -4.6454   -0.9320 C   0  0  0  0  0  0  0  0  0  0  0  0
   14.8520   -3.2112   -0.6163 C   0  0  0  0  0  0  0  0  0  0  0  0
   15.3722   -2.2356   -1.6668 C   0  0  0  0  0  0  0  0  0  0  0  0
   15.9150   -2.6629   -2.8947 C   0  0  0  0  0  0  0  0  0  0  0  0
   16.0416   -3.7227   -3.0984 H   0  0  0  0  0  0  0  0  0  0  0  0
   16.2886   -1.7341   -3.8769 C   0  0  0  0  0  0  0  0  0  0  0  0
   16.6993   -2.0706   -4.8258 H   0  0  0  0  0  0  0  0  0  0  0  0
   16.1366   -0.3632   -3.6396 C   0  0  0  0  0  0  0  0  0  0  0  0
   16.4291    0.3567   -4.3984 H   0  0  0  0  0  0  0  0  0  0  0  0
   15.6284    0.0892   -2.4146 C   0  0  0  0  0  0  0  0  0  0  0  0
   15.5181    1.5250   -2.1060 C   0  0  0  0  0  0  0  0  0  0  0  0
   15.2422    2.4656   -3.1119 C   0  0  0  0  0  0  0  0  0  0  0  0
   15.1084    2.1293   -4.1381 H   0  0  0  0  0  0  0  0  0  0  0  0
   15.1384    3.8285   -2.7923 C   0  0  0  0  0  0  0  0  0  0  0  0
   14.9356    4.5657   -3.5623 H   0  0  0  0  0  0  0  0  0  0  0  0
   15.3035    4.2615   -1.4731 C   0  0  0  0  0  0  0  0  0  0  0  0
   15.2171    5.9567   -1.0742 Cl  0  0  0  0  0  0  0  0  0  0  0  0
   15.5851    3.3321   -0.4734 C   0  0  0  0  0  0  0  0  0  0  0  0
   15.7381    3.6710    0.5470 H   0  0  0  0  0  0  0  0  0  0  0  0
   15.7133    1.9746   -0.7856 C   0  0  0  0  0  0  0  0  0  0  0  0
   16.2211    0.8593    0.4609 Cl  0  0  0  0  0  0  0  0  0  0  0  0
   15.2310   -0.8577   -1.4574 C   0  0  0  0  0  0  0  0  0  0  0  0
   14.7797   -0.5157   -0.5323 H   0  0  0  0  0  0  0  0  0  0  0  0
   13.3269   -3.0501   -0.4755 C   0  0  0  0  0  0  0  0  0  0  0  0
   12.4963   -3.1486   -1.3762 O   0  0  0  0  0  0  0  0  0  0  0  0
   13.0089   -2.7290    0.8317 N   0  0  0  0  0  0  0  0  0  0  0  0
   11.6797   -2.3486    1.3094 C   0  0  0  0  0  0  0  0  0  0  0  0
   11.3907   -2.9584    2.1727 H   0  0  0  0  0  0  0  0  0  0  0  0
   11.6626   -1.2905    1.6001 H   0  0  0  0  0  0  0  0  0  0  0  0
   10.9280   -2.5011    0.5239 H   0  0  0  0  0  0  0  0  0  0  0  0
   14.2023   -2.6508    1.5265 C   0  0  0  0  0  0  0  0  0  0  0  0
   14.3178   -2.4160    2.8688 N   0  0  0  0  0  0  0  0  0  0  0  0
   15.2403   -2.1880    3.2328 H   0  0  0  0  0  0  0  0  0  0  0  0
   13.4947   -2.0743    3.3589 H   0  0  0  0  0  0  0  0  0  0  0  0
   15.2372   -2.8556    0.7721 N   0  0  0  0  0  4  0  0  0  0  0  0
   16.1959   -2.9120    1.1228 H   0  0  0  0  0  0  0  0  0  0  0  0
   14.3733   -5.4573   -1.6845 C   0  0  0  0  0  0  0  0  0  0  0  0
   13.4349   -5.0464   -2.0459 H   0  0  0  0  0  0  0  0  0  0  0  0
   14.7034   -6.7868   -1.9625 C   0  0  0  0  0  0  0  0  0  0  0  0
   14.0155   -7.4042   -2.5349 H   0  0  0  0  0  0  0  0  0  0  0  0
  1  2  1  0
  2  3  2  0
  3  4  1  0
  3  5  1  0
  5  6  1  0
  5  7  2  0
  7  8  1  0
  8  9  1  0
  9 10  2  0
 10 11  1  0
 10 12  1  0
 12 13  1  0
 12 14  2  0
 14 15  1  0
 14 16  1  0
 16 17  1  0
 17 18  2  0
 18 19  1  0
 18 20  1  0
 20 21  1  0
 20 22  2  0
 22 23  1  0
 22 24  1  0
 24 25  1  0
 24 26  2  0
 26 27  1  0
 16 28  2  0
 28 29  1  0
  8 30  1  0
 30 31  2  0
 30 32  1  0
 32 33  1  0
 33 34  1  0
 33 35  1  0
 33 36  1  0
 32 37  1  0
 37 38  1  0
 38 39  1  0
 38 40  1  0
 37 41  2  0
 41 42  1  0
  7 43  1  0
 43 44  1  0
 43 45  2  0
 45 46  1  0
 45  2  1  0
 41  8  1  0
 28  9  1  0
 26 17  1  0
M  CHG  1  41   1
M  END
>  <score>  (241) 
5.52957

$$$$

     RDKit          3D

 55 58  0  0  0  0  0  0  0  0999 V2000
   16.0637   -8.4089   -1.7498 H   0  0  0  0  0  0  0  0  0  0  0  0
   15.8200   -7.3660   -1.5771 C   0  0  0  0  0  0  0  0  0  0  0  0
   16.7224   -6.5354   -0.9068 C   0  0  0  0  0  0  0  0  0  0  0  0
   17.6701   -6.9317   -0.5574 H   0  0  0  0  0  0  0  0  0  0  0  0
   16.4056   -5.1903   -0.6815 C   0  0  0  0  0  0  0  0  0  0  0  0
   17.1075   -4.5529   -0.1495 H   0  0  0  0  0  0  0  0  0  0  0  0
   15.1770   -4.6602   -1.1124 C   0  0  0  0  0  0  0  0  0  0  0  0
   14.7913   -3.2179   -0.7952 C   0  0  0  0  0  0  0  0  0  0  0  0
   15.3326   -2.1970   -1.8029 C   0  0  0  0  0  0  0  0  0  0  0  0
   15.9793   -2.5796   -2.9949 C   0  0  0  0  0  0  0  0  0  0  0  0
   16.1485   -3.6317   -3.2139 H   0  0  0  0  0  0  0  0  0  0  0  0
   16.4034   -1.6139   -3.9194 C   0  0  0  0  0  0  0  0  0  0  0  0
   16.9130   -1.9139   -4.8309 H   0  0  0  0  0  0  0  0  0  0  0  0
   16.1565   -0.2573   -3.6900 C   0  0  0  0  0  0  0  0  0  0  0  0
   16.4877    0.4706   -4.4275 H   0  0  0  0  0  0  0  0  0  0  0  0
   15.4973    0.1546   -2.5180 C   0  0  0  0  0  0  0  0  0  0  0  0
   15.1520    1.5697   -2.2669 C   0  0  0  0  0  0  0  0  0  0  0  0
   14.7370    2.2609   -3.1948 O   0  0  0  0  0  0  0  0  0  0  0  0
   15.2186    2.1080   -0.9756 N   0  0  0  0  0  0  0  0  0  0  0  0
   16.1520    1.5254   -0.0013 C   0  0  0  0  0  0  0  0  0  0  0  0
   16.8898    0.9377   -0.5432 H   0  0  0  0  0  0  0  0  0  0  0  0
   15.6754    0.8345    0.6890 H   0  0  0  0  0  0  0  0  0  0  0  0
   16.8206    2.6476    0.8082 C   0  0  0  0  0  0  0  0  0  0  0  0
   17.3451    3.3079    0.1102 H   0  0  0  0  0  0  0  0  0  0  0  0
   17.5455    2.2287    1.5147 H   0  0  0  0  0  0  0  0  0  0  0  0
   15.7948    3.4316    1.5337 N   0  0  0  0  0  0  0  0  0  0  0  0
   16.2688    4.5338    2.3913 C   0  0  0  0  0  0  0  0  0  0  0  0
   16.2960    5.4649    1.8201 H   0  0  0  0  0  0  0  0  0  0  0  0
   15.5844    4.6875    3.2323 H   0  0  0  0  0  0  0  0  0  0  0  0
   17.2702    4.3251    2.7881 H   0  0  0  0  0  0  0  0  0  0  0  0
   14.5408    3.7066    0.8005 C   0  0  0  0  0  0  0  0  0  0  0  0
   13.7462    3.0581    1.1769 H   0  0  0  0  0  0  0  0  0  0  0  0
   14.2254    4.7427    0.9683 H   0  0  0  0  0  0  0  0  0  0  0  0
   14.7324    3.4716   -0.7043 C   0  0  0  0  0  0  0  0  0  0  0  0
   13.7817    3.6491   -1.2136 H   0  0  0  0  0  0  0  0  0  0  0  0
   15.4681    4.1941   -1.0717 H   0  0  0  0  0  0  0  0  0  0  0  0
   15.1220   -0.8217   -1.5799 C   0  0  0  0  0  0  0  0  0  0  0  0
   14.6125   -0.5083   -0.6731 H   0  0  0  0  0  0  0  0  0  0  0  0
   13.2662   -3.0475   -0.6122 C   0  0  0  0  0  0  0  0  0  0  0  0
   12.3931   -3.2471   -1.4583 O   0  0  0  0  0  0  0  0  0  0  0  0
   12.9949   -2.6474    0.6839 N   0  0  0  0  0  0  0  0  0  0  0  0
   11.6986   -2.2516    1.2178 C   0  0  0  0  0  0  0  0  0  0  0  0
   11.6977   -1.1873    1.4767 H   0  0  0  0  0  0  0  0  0  0  0  0
   11.4697   -2.8325    2.1184 H   0  0  0  0  0  0  0  0  0  0  0  0
   10.9071   -2.4163    0.4773 H   0  0  0  0  0  0  0  0  0  0  0  0
   14.1970   -2.6051    1.3586 C   0  0  0  0  0  0  0  0  0  0  0  0
   14.3839   -2.2935    2.6810 N   0  0  0  0  0  0  0  0  0  0  0  0
   13.6031   -1.9800    3.2514 H   0  0  0  0  0  0  0  0  0  0  0  0
   15.3294   -2.2788    3.0636 H   0  0  0  0  0  0  0  0  0  0  0  0
   15.1959   -2.8949    0.5964 N   0  0  0  0  0  4  0  0  0  0  0  0
   16.1603   -2.9156    0.9261 H   0  0  0  0  0  0  0  0  0  0  0  0
   14.2820   -5.5066   -1.7893 C   0  0  0  0  0  0  0  0  0  0  0  0
   13.3258   -5.1227   -2.1298 H   0  0  0  0  0  0  0  0  0  0  0  0
   14.5970   -6.8511   -2.0136 C   0  0  0  0  0  0  0  0  0  0  0  0
   13.8920   -7.4944   -2.5273 H   0  0  0  0  0  0  0  0  0  0  0  0
  1  2  1  0
  2  3  2  0
  3  4  1  0
  3  5  1  0
  5  6  1  0
  5  7  2  0
  7  8  1  0
  8  9  1  0
  9 10  2  0
 10 11  1  0
 10 12  1  0
 12 13  1  0
 12 14  2  0
 14 15  1  0
 14 16  1  0
 16 17  1  0
 17 18  2  0
 17 19  1  0
 19 20  1  0
 20 21  1  0
 20 22  1  0
 20 23  1  0
 23 24  1  0
 23 25  1  0
 23 26  1  0
 26 27  1  0
 27 28  1  0
 27 29  1  0
 27 30  1  0
 26 31  1  0
 31 32  1  0
 31 33  1  0
 31 34  1  0
 34 35  1  0
 34 36  1  0
 16 37  2  0
 37 38  1  0
  8 39  1  0
 39 40  2  0
 39 41  1  0
 41 42  1  0
 42 43  1  0
 42 44  1  0
 42 45  1  0
 41 46  1  0
 46 47  1  0
 47 48  1  0
 47 49  1  0
 46 50  2  0
 50 51  1  0
  7 52  1  0
 52 53  1  0
 52 54  2  0
 54 55  1  0
 54  2  1  0
 50  8  1  0
 37  9  1  0
 34 19  1  0
M  CHG  1  50   1
M  END
>  <score>  (242) 
5.52803

$$$$

     RDKit          3D

 51 54  0  0  0  0  0  0  0  0999 V2000
   16.1606   -8.3577   -1.6881 H   0  0  0  0  0  0  0  0  0  0  0  0
   15.9020   -7.3221   -1.4999 C   0  0  0  0  0  0  0  0  0  0  0  0
   16.7846   -6.4985   -0.7932 C   0  0  0  0  0  0  0  0  0  0  0  0
   17.7395   -6.8802   -0.4417 H   0  0  0  0  0  0  0  0  0  0  0  0
   16.4361   -5.1722   -0.5346 C   0  0  0  0  0  0  0  0  0  0  0  0
   17.1150   -4.5289    0.0179 H   0  0  0  0  0  0  0  0  0  0  0  0
   15.2041   -4.6601   -0.9682 C   0  0  0  0  0  0  0  0  0  0  0  0
   14.8237   -3.2284   -0.6464 C   0  0  0  0  0  0  0  0  0  0  0  0
   15.3740   -2.2353   -1.6584 C   0  0  0  0  0  0  0  0  0  0  0  0
   15.9744   -2.6142   -2.8769 C   0  0  0  0  0  0  0  0  0  0  0  0
   16.0660   -3.6646   -3.1358 H   0  0  0  0  0  0  0  0  0  0  0  0
   16.4580   -1.6428   -3.7690 C   0  0  0  0  0  0  0  0  0  0  0  0
   16.9164   -1.9353   -4.7116 H   0  0  0  0  0  0  0  0  0  0  0  0
   16.3550   -0.2843   -3.4403 C   0  0  0  0  0  0  0  0  0  0  0  0
   16.7274    0.4876   -4.1055 H   0  0  0  0  0  0  0  0  0  0  0  0
   15.7316    0.1014   -2.2502 C   0  0  0  0  0  0  0  0  0  0  0  0
   15.6114    1.4350   -1.8782 N   0  0  0  0  0  0  0  0  0  0  0  0
   16.8002    2.2845   -1.9069 C   0  0  0  0  0  0  0  0  0  0  0  0
   17.6961    1.7104   -2.1807 H   0  0  0  0  0  0  0  0  0  0  0  0
   16.9860    2.7342   -0.9246 H   0  0  0  0  0  0  0  0  0  0  0  0
   16.4842    3.3059   -2.9574 C   0  0  0  0  0  0  0  0  0  0  0  0
   16.3424    2.8015   -3.9116 H   0  0  0  0  0  0  0  0  0  0  0  0
   17.2747    4.0494   -3.0391 H   0  0  0  0  0  0  0  0  0  0  0  0
   14.9534    4.1187   -2.4810 S   0  0  0  0  0  0  0  0  0  0  0  0
   15.1494    4.8373   -1.2121 O   0  0  0  0  0  0  0  0  0  0  0  0
   14.4799    4.9899   -3.5612 O   0  0  0  0  0  0  0  0  0  0  0  0
   13.7721    2.7976   -2.2349 C   0  0  0  0  0  0  0  0  0  0  0  0
   12.8265    3.2133   -1.8911 H   0  0  0  0  0  0  0  0  0  0  0  0
   13.6329    2.2746   -3.1824 H   0  0  0  0  0  0  0  0  0  0  0  0
   14.3819    1.8798   -1.2152 C   0  0  0  0  0  0  0  0  0  0  0  0
   14.5922    2.3812   -0.2612 H   0  0  0  0  0  0  0  0  0  0  0  0
   13.7121    1.0337   -1.0117 H   0  0  0  0  0  0  0  0  0  0  0  0
   15.2295   -0.8716   -1.3946 C   0  0  0  0  0  0  0  0  0  0  0  0
   14.7403   -0.5427   -0.4851 H   0  0  0  0  0  0  0  0  0  0  0  0
   13.3025   -3.0377   -0.5074 C   0  0  0  0  0  0  0  0  0  0  0  0
   12.4716   -3.1158   -1.4124 O   0  0  0  0  0  0  0  0  0  0  0  0
   12.9883   -2.7185    0.7976 N   0  0  0  0  0  0  0  0  0  0  0  0
   11.6615   -2.3411    1.3033 C   0  0  0  0  0  0  0  0  0  0  0  0
   11.6432   -1.2851    1.6092 H   0  0  0  0  0  0  0  0  0  0  0  0
   10.8923   -2.4908    0.5312 H   0  0  0  0  0  0  0  0  0  0  0  0
   11.3882   -2.9584    2.1671 H   0  0  0  0  0  0  0  0  0  0  0  0
   14.1781   -2.6723    1.5039 C   0  0  0  0  0  0  0  0  0  0  0  0
   14.2831   -2.4151    2.8399 N   0  0  0  0  0  0  0  0  0  0  0  0
   15.2091   -2.2163    3.2188 H   0  0  0  0  0  0  0  0  0  0  0  0
   13.4573   -2.0607    3.3266 H   0  0  0  0  0  0  0  0  0  0  0  0
   15.2051   -2.9012    0.7471 N   0  0  0  0  0  4  0  0  0  0  0  0
   16.1768   -2.9011    1.0765 H   0  0  0  0  0  0  0  0  0  0  0  0
   14.3418   -5.4831   -1.7114 C   0  0  0  0  0  0  0  0  0  0  0  0
   13.3993   -5.0833   -2.0788 H   0  0  0  0  0  0  0  0  0  0  0  0
   14.6874   -6.8123   -1.9746 C   0  0  0  0  0  0  0  0  0  0  0  0
   14.0108   -7.4461   -2.5407 H   0  0  0  0  0  0  0  0  0  0  0  0
  1  2  1  0
  2  3  2  0
  3  4  1  0
  3  5  1  0
  5  6  1  0
  5  7  2  0
  7  8  1  0
  8  9  1  0
  9 10  2  0
 10 11  1  0
 10 12  1  0
 12 13  1  0
 12 14  2  0
 14 15  1  0
 14 16  1  0
 16 17  1  0
 17 18  1  0
 18 19  1  0
 18 20  1  0
 18 21  1  0
 21 22  1  0
 21 23  1  0
 21 24  1  0
 24 25  2  0
 24 26  2  0
 24 27  1  0
 27 28  1  0
 27 29  1  0
 27 30  1  0
 30 31  1  0
 30 32  1  0
 16 33  2  0
 33 34  1  0
  8 35  1  0
 35 36  2  0
 35 37  1  0
 37 38  1  0
 38 39  1  0
 38 40  1  0
 38 41  1  0
 37 42  1  0
 42 43  1  0
 43 44  1  0
 43 45  1  0
 42 46  2  0
 46 47  1  0
  7 48  1  0
 48 49  1  0
 48 50  2  0
 50 51  1  0
 50  2  1  0
 46  8  1  0
 33  9  1  0
 30 17  1  0
M  CHG  1  46   1
M  END
>  <score>  (243) 
5.52514

$$$$

     RDKit          3D

 47 50  0  0  0  0  0  0  0  0999 V2000
   16.1222   -8.4869   -1.6115 H   0  0  0  0  0  0  0  0  0  0  0  0
   15.8551   -7.4412   -1.4708 C   0  0  0  0  0  0  0  0  0  0  0  0
   16.7296   -6.5825   -0.8014 C   0  0  0  0  0  0  0  0  0  0  0  0
   17.6742   -6.9567   -0.4178 H   0  0  0  0  0  0  0  0  0  0  0  0
   16.3866   -5.2403   -0.6063 C   0  0  0  0  0  0  0  0  0  0  0  0
   17.0705   -4.5919   -0.0679 H   0  0  0  0  0  0  0  0  0  0  0  0
   15.1684   -4.7169   -1.0751 C   0  0  0  0  0  0  0  0  0  0  0  0
   14.8109   -3.2514   -0.7884 C   0  0  0  0  0  0  0  0  0  0  0  0
   15.3866   -2.2422   -1.7810 C   0  0  0  0  0  0  0  0  0  0  0  0
   15.9453   -2.6397   -3.0069 C   0  0  0  0  0  0  0  0  0  0  0  0
   16.0052   -3.6935   -3.2616 H   0  0  0  0  0  0  0  0  0  0  0  0
   16.4212   -1.6876   -3.9151 C   0  0  0  0  0  0  0  0  0  0  0  0
   16.8526   -2.0016   -4.8589 H   0  0  0  0  0  0  0  0  0  0  0  0
   16.3457   -0.3273   -3.6194 C   0  0  0  0  0  0  0  0  0  0  0  0
   16.7109    0.3893   -4.3545 H   0  0  0  0  0  0  0  0  0  0  0  0
   15.8105    0.1081   -2.3938 C   0  0  0  0  0  0  0  0  0  0  0  0
   15.7208    1.5605   -2.0954 C   0  0  0  0  0  0  0  0  0  0  0  0
   15.6904    2.3811   -3.0040 O   0  0  0  0  0  0  0  0  0  0  0  0
   15.6004    2.0302   -0.7994 N   0  0  0  0  0  0  0  0  0  0  0  0
   15.7636    1.3778   -0.0407 H   0  0  0  0  0  0  0  0  0  0  0  0
   15.4068    3.4362   -0.4709 C   0  0  0  0  0  0  0  0  0  0  0  0
   14.4103    3.8517   -0.6855 H   0  0  0  0  0  0  0  0  0  0  0  0
   16.1409    3.9786    0.7473 C   0  0  0  0  0  0  0  0  0  0  0  0
   16.7736    3.2955    1.3245 H   0  0  0  0  0  0  0  0  0  0  0  0
   15.6586    4.7621    1.3438 H   0  0  0  0  0  0  0  0  0  0  0  0
   16.6057    4.3496   -0.6604 C   0  0  0  0  0  0  0  0  0  0  0  0
   17.5405    3.9061   -1.0230 H   0  0  0  0  0  0  0  0  0  0  0  0
   16.4102    5.3674   -1.0101 H   0  0  0  0  0  0  0  0  0  0  0  0
   15.3277   -0.8642   -1.4917 C   0  0  0  0  0  0  0  0  0  0  0  0
   14.8747   -0.5518   -0.5534 H   0  0  0  0  0  0  0  0  0  0  0  0
   13.2922   -3.0283   -0.6062 C   0  0  0  0  0  0  0  0  0  0  0  0
   12.4265   -3.0870   -1.4744 O   0  0  0  0  0  0  0  0  0  0  0  0
   13.0223   -2.6739    0.7011 N   0  0  0  0  0  0  0  0  0  0  0  0
   11.7163   -2.3123    1.2656 C   0  0  0  0  0  0  0  0  0  0  0  0
   10.9124   -2.4764    0.5354 H   0  0  0  0  0  0  0  0  0  0  0  0
   11.5020   -2.9226    2.1502 H   0  0  0  0  0  0  0  0  0  0  0  0
   11.6965   -1.2558    1.5598 H   0  0  0  0  0  0  0  0  0  0  0  0
   14.2274   -2.6285    1.3648 C   0  0  0  0  0  0  0  0  0  0  0  0
   14.3937   -2.3319    2.6881 N   0  0  0  0  0  0  0  0  0  0  0  0
   13.5797   -2.1272    3.2658 H   0  0  0  0  0  0  0  0  0  0  0  0
   15.3307   -2.3560    3.0930 H   0  0  0  0  0  0  0  0  0  0  0  0
   15.2240   -2.9042    0.5913 N   0  0  0  0  0  4  0  0  0  0  0  0
   16.1940   -2.9077    0.9054 H   0  0  0  0  0  0  0  0  0  0  0  0
   14.3027   -5.5925   -1.7698 C   0  0  0  0  0  0  0  0  0  0  0  0
   13.3534   -5.2376   -2.1610 H   0  0  0  0  0  0  0  0  0  0  0  0
   14.6434   -6.9436   -1.9606 C   0  0  0  0  0  0  0  0  0  0  0  0
   13.9716   -7.6149   -2.4887 H   0  0  0  0  0  0  0  0  0  0  0  0
  1  2  1  0
  2  3  2  0
  3  4  1  0
  3  5  1  0
  5  6  1  0
  5  7  2  0
  7  8  1  0
  8  9  1  0
  9 10  2  0
 10 11  1  0
 10 12  1  0
 12 13  1  0
 12 14  2  0
 14 15  1  0
 14 16  1  0
 16 17  1  0
 17 18  2  0
 17 19  1  0
 19 20  1  0
 19 21  1  0
 21 22  1  0
 21 23  1  0
 23 24  1  0
 23 25  1  0
 23 26  1  0
 26 27  1  0
 26 28  1  0
 16 29  2  0
 29 30  1  0
  8 31  1  0
 31 32  2  0
 31 33  1  0
 33 34  1  0
 34 35  1  0
 34 36  1  0
 34 37  1  0
 33 38  1  0
 38 39  1  0
 39 40  1  0
 39 41  1  0
 38 42  2  0
 42 43  1  0
  7 44  1  0
 44 45  1  0
 44 46  2  0
 46 47  1  0
 46  2  1  0
 42  8  1  0
 29  9  1  0
 26 21  1  0
M  CHG  1  42   1
M  END
>  <score>  (244) 
5.52443

$$$$

     RDKit          3D

 46 49  0  0  0  0  0  0  0  0999 V2000
   16.1243   -8.4887   -1.6111 H   0  0  0  0  0  0  0  0  0  0  0  0
   15.8530   -7.4441   -1.4711 C   0  0  0  0  0  0  0  0  0  0  0  0
   16.7273   -6.5859   -0.8007 C   0  0  0  0  0  0  0  0  0  0  0  0
   17.6739   -6.9552   -0.4181 H   0  0  0  0  0  0  0  0  0  0  0  0
   16.3896   -5.2410   -0.6110 C   0  0  0  0  0  0  0  0  0  0  0  0
   17.0674   -4.5907   -0.0659 H   0  0  0  0  0  0  0  0  0  0  0  0
   15.1711   -4.7193   -1.0732 C   0  0  0  0  0  0  0  0  0  0  0  0
   14.8129   -3.2535   -0.7843 C   0  0  0  0  0  0  0  0  0  0  0  0
   15.3857   -2.2471   -1.7828 C   0  0  0  0  0  0  0  0  0  0  0  0
   15.9408   -2.6407   -3.0098 C   0  0  0  0  0  0  0  0  0  0  0  0
   16.0033   -3.6930   -3.2638 H   0  0  0  0  0  0  0  0  0  0  0  0
   16.4222   -1.6906   -3.9193 C   0  0  0  0  0  0  0  0  0  0  0  0
   16.8532   -2.0059   -4.8634 H   0  0  0  0  0  0  0  0  0  0  0  0
   16.3519   -0.3274   -3.6203 C   0  0  0  0  0  0  0  0  0  0  0  0
   16.7020    0.4049   -4.3432 H   0  0  0  0  0  0  0  0  0  0  0  0
   15.7925    0.1041   -2.4085 C   0  0  0  0  0  0  0  0  0  0  0  0
   15.7037    1.5480   -2.0906 C   0  0  0  0  0  0  0  0  0  0  0  0
   16.7383    2.4314   -2.4361 C   0  0  0  0  0  0  0  0  0  0  0  0
   17.6233    2.0390   -2.9199 H   0  0  0  0  0  0  0  0  0  0  0  0
   16.6642    3.7992   -2.1363 C   0  0  0  0  0  0  0  0  0  0  0  0
   17.4832    4.4599   -2.4056 H   0  0  0  0  0  0  0  0  0  0  0  0
   15.5362    4.3065   -1.4826 C   0  0  0  0  0  0  0  0  0  0  0  0
   15.4628    5.3638   -1.2422 H   0  0  0  0  0  0  0  0  0  0  0  0
   14.4907    3.4484   -1.1298 C   0  0  0  0  0  0  0  0  0  0  0  0
   13.3937    3.9397   -0.5042 F   0  0  0  0  0  0  0  0  0  0  0  0
   14.5840    2.0824   -1.4312 C   0  0  0  0  0  0  0  0  0  0  0  0
   13.7613    1.4361   -1.1560 H   0  0  0  0  0  0  0  0  0  0  0  0
   15.3143   -0.8663   -1.5087 C   0  0  0  0  0  0  0  0  0  0  0  0
   14.9023   -0.5301   -0.5635 H   0  0  0  0  0  0  0  0  0  0  0  0
   13.2996   -3.0270   -0.6055 C   0  0  0  0  0  0  0  0  0  0  0  0
   12.4289   -3.0825   -1.4717 O   0  0  0  0  0  0  0  0  0  0  0  0
   13.0229   -2.6729    0.7012 N   0  0  0  0  0  0  0  0  0  0  0  0
   11.7216   -2.3136    1.2611 C   0  0  0  0  0  0  0  0  0  0  0  0
   11.6920   -1.2628    1.5582 H   0  0  0  0  0  0  0  0  0  0  0  0
   10.9134   -2.4752    0.5424 H   0  0  0  0  0  0  0  0  0  0  0  0
   11.5027   -2.9153    2.1452 H   0  0  0  0  0  0  0  0  0  0  0  0
   14.2243   -2.6301    1.3657 C   0  0  0  0  0  0  0  0  0  0  0  0
   14.3939   -2.3350    2.6862 N   0  0  0  0  0  0  0  0  0  0  0  0
   13.5812   -2.1267    3.2628 H   0  0  0  0  0  0  0  0  0  0  0  0
   15.3289   -2.3554    3.0939 H   0  0  0  0  0  0  0  0  0  0  0  0
   15.2178   -2.9047    0.5905 N   0  0  0  0  0  4  0  0  0  0  0  0
   16.1875   -2.9068    0.9012 H   0  0  0  0  0  0  0  0  0  0  0  0
   14.3018   -5.5917   -1.7669 C   0  0  0  0  0  0  0  0  0  0  0  0
   13.3531   -5.2398   -2.1627 H   0  0  0  0  0  0  0  0  0  0  0  0
   14.6427   -6.9432   -1.9611 C   0  0  0  0  0  0  0  0  0  0  0  0
   13.9733   -7.6174   -2.4883 H   0  0  0  0  0  0  0  0  0  0  0  0
  1  2  1  0
  2  3  2  0
  3  4  1  0
  3  5  1  0
  5  6  1  0
  5  7  2  0
  7  8  1  0
  8  9  1  0
  9 10  2  0
 10 11  1  0
 10 12  1  0
 12 13  1  0
 12 14  2  0
 14 15  1  0
 14 16  1  0
 16 17  1  0
 17 18  2  0
 18 19  1  0
 18 20  1  0
 20 21  1  0
 20 22  2  0
 22 23  1  0
 22 24  1  0
 24 25  1  0
 24 26  2  0
 26 27  1  0
 16 28  2  0
 28 29  1  0
  8 30  1  0
 30 31  2  0
 30 32  1  0
 32 33  1  0
 33 34  1  0
 33 35  1  0
 33 36  1  0
 32 37  1  0
 37 38  1  0
 38 39  1  0
 38 40  1  0
 37 41  2  0
 41 42  1  0
  7 43  1  0
 43 44  1  0
 43 45  2  0
 45 46  1  0
 45  2  1  0
 41  8  1  0
 28  9  1  0
 26 17  1  0
M  CHG  1  41   1
M  END
>  <score>  (245) 
5.52337

$$$$

     RDKit          3D

 49 52  0  0  0  0  0  0  0  0999 V2000
   15.2519  -12.0861    0.3624 H   0  0  0  0  0  0  0  0  0  0  0  0
   14.4373  -11.4324    0.0678 C   0  0  0  0  0  0  0  0  0  0  0  0
   14.5644  -10.7477   -1.0766 N   0  0  0  0  0  0  0  0  0  0  0  0
   13.5952   -9.8820   -1.4160 C   0  0  0  0  0  0  0  0  0  0  0  0
   13.8066   -9.0514   -2.6386 C   0  0  0  0  0  0  0  0  0  0  0  0
   13.1861   -9.4723   -3.4350 H   0  0  0  0  0  0  0  0  0  0  0  0
   14.8568   -9.1185   -2.8912 H   0  0  0  0  0  0  0  0  0  0  0  0
   13.5375   -7.6546   -2.4787 O   0  0  0  0  0  0  0  0  0  0  0  0
   14.5543   -6.9006   -1.9399 C   0  0  0  0  0  0  0  0  0  0  0  0
   15.7871   -7.4222   -1.5025 C   0  0  0  0  0  0  0  0  0  0  0  0
   15.9999   -8.4777   -1.6415 H   0  0  0  0  0  0  0  0  0  0  0  0
   16.7033   -6.5952   -0.8363 C   0  0  0  0  0  0  0  0  0  0  0  0
   17.6367   -6.9877   -0.4428 H   0  0  0  0  0  0  0  0  0  0  0  0
   16.3949   -5.2490   -0.6206 C   0  0  0  0  0  0  0  0  0  0  0  0
   17.0778   -4.6088   -0.0680 H   0  0  0  0  0  0  0  0  0  0  0  0
   15.1891   -4.7029   -1.0782 C   0  0  0  0  0  0  0  0  0  0  0  0
   14.8306   -3.2526   -0.7669 C   0  0  0  0  0  0  0  0  0  0  0  0
   15.3888   -2.2514   -1.7739 C   0  0  0  0  0  0  0  0  0  0  0  0
   15.9412   -2.6514   -3.0048 C   0  0  0  0  0  0  0  0  0  0  0  0
   15.9938   -3.7094   -3.2411 H   0  0  0  0  0  0  0  0  0  0  0  0
   16.4201   -1.7034   -3.9229 C   0  0  0  0  0  0  0  0  0  0  0  0
   16.8486   -2.0135   -4.8706 H   0  0  0  0  0  0  0  0  0  0  0  0
   16.3459   -0.3405   -3.6230 C   0  0  0  0  0  0  0  0  0  0  0  0
   16.7194    0.3980   -4.3276 H   0  0  0  0  0  0  0  0  0  0  0  0
   15.7932    0.0691   -2.4077 C   0  0  0  0  0  0  0  0  0  0  0  0
   15.7339    1.1256   -2.1695 H   0  0  0  0  0  0  0  0  0  0  0  0
   15.3163   -0.8764   -1.4942 C   0  0  0  0  0  0  0  0  0  0  0  0
   14.8843   -0.5409   -0.5551 H   0  0  0  0  0  0  0  0  0  0  0  0
   13.3069   -3.0577   -0.5924 C   0  0  0  0  0  0  0  0  0  0  0  0
   12.4478   -3.1314   -1.4676 O   0  0  0  0  0  0  0  0  0  0  0  0
   13.0284   -2.6897    0.7111 N   0  0  0  0  0  0  0  0  0  0  0  0
   11.7243   -2.3167    1.2705 C   0  0  0  0  0  0  0  0  0  0  0  0
   10.9199   -2.4770    0.5403 H   0  0  0  0  0  0  0  0  0  0  0  0
   11.7162   -1.2565    1.5574 H   0  0  0  0  0  0  0  0  0  0  0  0
   11.5037   -2.9222    2.1597 H   0  0  0  0  0  0  0  0  0  0  0  0
   14.2393   -2.6233    1.3688 C   0  0  0  0  0  0  0  0  0  0  0  0
   14.4061   -2.3025    2.6791 N   0  0  0  0  0  0  0  0  0  0  0  0
   15.3443   -2.3354    3.0828 H   0  0  0  0  0  0  0  0  0  0  0  0
   13.5933   -2.1253    3.2644 H   0  0  0  0  0  0  0  0  0  0  0  0
   15.2455   -2.9104    0.6112 N   0  0  0  0  0  4  0  0  0  0  0  0
   16.2143   -2.9508    0.9427 H   0  0  0  0  0  0  0  0  0  0  0  0
   14.2936   -5.5433   -1.7622 C   0  0  0  0  0  0  0  0  0  0  0  0
   13.3412   -5.1698   -2.1203 H   0  0  0  0  0  0  0  0  0  0  0  0
   12.4246   -9.7386   -0.6691 C   0  0  0  0  0  0  0  0  0  0  0  0
   11.6651   -9.0505   -1.0231 H   0  0  0  0  0  0  0  0  0  0  0  0
   12.2721  -10.4474    0.5222 C   0  0  0  0  0  0  0  0  0  0  0  0
   11.3888  -10.3154    1.1473 H   0  0  0  0  0  0  0  0  0  0  0  0
   13.3170  -11.3001    0.8946 C   0  0  0  0  0  0  0  0  0  0  0  0
   13.3054  -11.8587    1.8259 H   0  0  0  0  0  0  0  0  0  0  0  0
  1  2  1  0
  2  3  2  0
  3  4  1  0
  4  5  1  0
  5  6  1  0
  5  7  1  0
  5  8  1  0
  8  9  1  0
  9 10  2  0
 10 11  1  0
 10 12  1  0
 12 13  1  0
 12 14  2  0
 14 15  1  0
 14 16  1  0
 16 17  1  0
 17 18  1  0
 18 19  2  0
 19 20  1  0
 19 21  1  0
 21 22  1  0
 21 23  2  0
 23 24  1  0
 23 25  1  0
 25 26  1  0
 25 27  2  0
 27 28  1  0
 17 29  1  0
 29 30  2  0
 29 31  1  0
 31 32  1  0
 32 33  1  0
 32 34  1  0
 32 35  1  0
 31 36  1  0
 36 37  1  0
 37 38  1  0
 37 39  1  0
 36 40  2  0
 40 41  1  0
 16 42  2  0
 42 43  1  0
  4 44  2  0
 44 45  1  0
 44 46  1  0
 46 47  1  0
 46 48  2  0
 48 49  1  0
 48  2  1  0
 42  9  1  0
 40 17  1  0
 27 18  1  0
M  CHG  1  40   1
M  END
>  <score>  (246) 
5.51634

$$$$

     RDKit          3D

 49 51  0  0  0  0  0  0  0  0999 V2000
   16.0997   -8.4602   -1.6166 H   0  0  0  0  0  0  0  0  0  0  0  0
   15.8591   -7.4089   -1.4849 C   0  0  0  0  0  0  0  0  0  0  0  0
   16.7430   -6.5639   -0.8069 C   0  0  0  0  0  0  0  0  0  0  0  0
   17.6724   -6.9590   -0.4086 H   0  0  0  0  0  0  0  0  0  0  0  0
   16.4128   -5.2184   -0.6080 C   0  0  0  0  0  0  0  0  0  0  0  0
   17.0810   -4.5667   -0.0515 H   0  0  0  0  0  0  0  0  0  0  0  0
   15.1969   -4.6966   -1.0730 C   0  0  0  0  0  0  0  0  0  0  0  0
   14.8253   -3.2469   -0.7664 C   0  0  0  0  0  0  0  0  0  0  0  0
   15.3737   -2.2337   -1.7687 C   0  0  0  0  0  0  0  0  0  0  0  0
   15.9306   -2.6369   -2.9912 C   0  0  0  0  0  0  0  0  0  0  0  0
   15.9879   -3.6946   -3.2261 H   0  0  0  0  0  0  0  0  0  0  0  0
   16.4081   -1.6892   -3.9036 C   0  0  0  0  0  0  0  0  0  0  0  0
   16.8441   -1.9965   -4.8483 H   0  0  0  0  0  0  0  0  0  0  0  0
   16.3375   -0.3283   -3.6072 C   0  0  0  0  0  0  0  0  0  0  0  0
   16.7324    0.3857   -4.3273 H   0  0  0  0  0  0  0  0  0  0  0  0
   15.7755    0.1167   -2.3981 C   0  0  0  0  0  0  0  0  0  0  0  0
   15.7172    1.5631   -2.0943 C   0  0  0  0  0  0  0  0  0  0  0  0
   16.4882    2.3574   -2.6297 O   0  0  0  0  0  0  0  0  0  0  0  0
   14.7616    2.0423   -1.2159 N   0  0  0  0  0  0  0  0  0  0  0  0
   14.1768    1.3456   -0.7575 H   0  0  0  0  0  0  0  0  0  0  0  0
   14.7756    3.4140   -0.7034 C   0  0  0  0  0  0  0  0  0  0  0  0
   14.9116    4.1520   -1.5090 H   0  0  0  0  0  0  0  0  0  0  0  0
   13.8234    3.6353   -0.2115 H   0  0  0  0  0  0  0  0  0  0  0  0
   15.9053    3.5465    0.3094 C   0  0  0  0  0  0  0  0  0  0  0  0
   15.8029    2.7637    1.0701 H   0  0  0  0  0  0  0  0  0  0  0  0
   16.8684    3.4237   -0.1987 H   0  0  0  0  0  0  0  0  0  0  0  0
   15.8494    4.9203    0.9764 C   0  0  0  0  0  0  0  0  0  0  0  0
   14.8217    5.1538    1.2756 H   0  0  0  0  0  0  0  0  0  0  0  0
   16.4827    4.9381    1.8716 H   0  0  0  0  0  0  0  0  0  0  0  0
   16.1896    5.6864    0.2724 H   0  0  0  0  0  0  0  0  0  0  0  0
   15.2891   -0.8560   -1.4918 C   0  0  0  0  0  0  0  0  0  0  0  0
   14.8547   -0.5633   -0.5377 H   0  0  0  0  0  0  0  0  0  0  0  0
   13.3042   -3.0535   -0.5860 C   0  0  0  0  0  0  0  0  0  0  0  0
   12.4421   -3.1313   -1.4591 O   0  0  0  0  0  0  0  0  0  0  0  0
   13.0292   -2.6876    0.7161 N   0  0  0  0  0  0  0  0  0  0  0  0
   11.7237   -2.3153    1.2752 C   0  0  0  0  0  0  0  0  0  0  0  0
   11.7127   -1.2548    1.5578 H   0  0  0  0  0  0  0  0  0  0  0  0
   11.5049   -2.9173    2.1663 H   0  0  0  0  0  0  0  0  0  0  0  0
   10.9179   -2.4793    0.5472 H   0  0  0  0  0  0  0  0  0  0  0  0
   14.2411   -2.6198    1.3676 C   0  0  0  0  0  0  0  0  0  0  0  0
   14.4143   -2.2954    2.6748 N   0  0  0  0  0  0  0  0  0  0  0  0
   15.3515   -2.3332    3.0762 H   0  0  0  0  0  0  0  0  0  0  0  0
   13.5992   -2.1272    3.2615 H   0  0  0  0  0  0  0  0  0  0  0  0
   15.2473   -2.9056    0.6091 N   0  0  0  0  0  4  0  0  0  0  0  0
   16.2117   -2.9685    0.9452 H   0  0  0  0  0  0  0  0  0  0  0  0
   14.3201   -5.5539   -1.7659 C   0  0  0  0  0  0  0  0  0  0  0  0
   13.3640   -5.1754   -2.1149 H   0  0  0  0  0  0  0  0  0  0  0  0
   14.6494   -6.9028   -1.9700 C   0  0  0  0  0  0  0  0  0  0  0  0
   13.9602   -7.5657   -2.4855 H   0  0  0  0  0  0  0  0  0  0  0  0
  1  2  1  0
  2  3  2  0
  3  4  1  0
  3  5  1  0
  5  6  1  0
  5  7  2  0
  7  8  1  0
  8  9  1  0
  9 10  2  0
 10 11  1  0
 10 12  1  0
 12 13  1  0
 12 14  2  0
 14 15  1  0
 14 16  1  0
 16 17  1  0
 17 18  2  0
 17 19  1  0
 19 20  1  0
 19 21  1  0
 21 22  1  0
 21 23  1  0
 21 24  1  0
 24 25  1  0
 24 26  1  0
 24 27  1  0
 27 28  1  0
 27 29  1  0
 27 30  1  0
 16 31  2  0
 31 32  1  0
  8 33  1  0
 33 34  2  0
 33 35  1  0
 35 36  1  0
 36 37  1  0
 36 38  1  0
 36 39  1  0
 35 40  1  0
 40 41  1  0
 41 42  1  0
 41 43  1  0
 40 44  2  0
 44 45  1  0
  7 46  1  0
 46 47  1  0
 46 48  2  0
 48 49  1  0
 48  2  1  0
 44  8  1  0
 31  9  1  0
M  CHG  1  44   1
M  END
>  <score>  (247) 
5.51043

$$$$

     RDKit          3D

 53 56  0  0  0  0  0  0  0  0999 V2000
   16.1300   -8.4636   -1.7451 H   0  0  0  0  0  0  0  0  0  0  0  0
   15.8904   -7.4285   -1.5269 C   0  0  0  0  0  0  0  0  0  0  0  0
   16.7980   -6.6329   -0.8160 C   0  0  0  0  0  0  0  0  0  0  0  0
   17.7568   -7.0313   -0.4999 H   0  0  0  0  0  0  0  0  0  0  0  0
   16.4740   -5.3083   -0.5166 C   0  0  0  0  0  0  0  0  0  0  0  0
   17.1857   -4.6753    0.0084 H   0  0  0  0  0  0  0  0  0  0  0  0
   15.2407   -4.7782   -0.9131 C   0  0  0  0  0  0  0  0  0  0  0  0
   14.8988   -3.3412   -0.6280 C   0  0  0  0  0  0  0  0  0  0  0  0
   15.4519   -2.4550   -1.7234 C   0  0  0  0  0  0  0  0  0  0  0  0
   15.9306   -2.9134   -2.9706 C   0  0  0  0  0  0  0  0  0  0  0  0
   15.9631   -3.9766   -3.1928 H   0  0  0  0  0  0  0  0  0  0  0  0
   16.3508   -1.9961   -3.9452 C   0  0  0  0  0  0  0  0  0  0  0  0
   16.7123   -2.3361   -4.9072 H   0  0  0  0  0  0  0  0  0  0  0  0
   16.2934   -0.6254   -3.6786 C   0  0  0  0  0  0  0  0  0  0  0  0
   16.6194    0.1029   -4.4130 H   0  0  0  0  0  0  0  0  0  0  0  0
   15.8287   -0.1716   -2.4446 C   0  0  0  0  0  0  0  0  0  0  0  0
   15.7475    1.1876   -2.1603 N   0  0  0  0  0  0  0  0  0  0  0  0
   14.8781    1.9949   -3.0407 C   0  0  0  0  0  0  0  0  0  0  0  0
   15.0291    1.7076   -4.0864 H   0  0  0  0  0  0  0  0  0  0  0  0
   13.8239    1.8238   -2.7855 H   0  0  0  0  0  0  0  0  0  0  0  0
   15.1875    3.4947   -2.8883 C   0  0  0  0  0  0  0  0  0  0  0  0
   16.1590    3.6924   -3.3386 H   0  0  0  0  0  0  0  0  0  0  0  0
   14.4352    4.0805   -3.4255 H   0  0  0  0  0  0  0  0  0  0  0  0
   15.2401    3.9429   -1.4788 N   0  0  0  0  0  0  0  0  0  0  0  0
   15.3514    5.4015   -1.3247 C   0  0  0  0  0  0  0  0  0  0  0  0
   16.2365    5.7530   -1.8462 H   0  0  0  0  0  0  0  0  0  0  0  0
   14.4847    5.8992   -1.7680 H   0  0  0  0  0  0  0  0  0  0  0  0
   15.4244    5.6865   -0.2697 H   0  0  0  0  0  0  0  0  0  0  0  0
   16.1038    3.1076   -0.6111 C   0  0  0  0  0  0  0  0  0  0  0  0
   16.0027    3.4254    0.4319 H   0  0  0  0  0  0  0  0  0  0  0  0
   17.1525    3.2299   -0.8899 H   0  0  0  0  0  0  0  0  0  0  0  0
   15.7042    1.6301   -0.7440 C   0  0  0  0  0  0  0  0  0  0  0  0
   16.3622    1.0143   -0.1237 H   0  0  0  0  0  0  0  0  0  0  0  0
   14.6818    1.5305   -0.3742 H   0  0  0  0  0  0  0  0  0  0  0  0
   15.4015   -1.0873   -1.4944 C   0  0  0  0  0  0  0  0  0  0  0  0
   15.0097   -0.7189   -0.5536 H   0  0  0  0  0  0  0  0  0  0  0  0
   13.3864   -3.0842   -0.4672 C   0  0  0  0  0  0  0  0  0  0  0  0
   12.5055   -3.2636   -1.3064 O   0  0  0  0  0  0  0  0  0  0  0  0
   13.1239   -2.6017    0.7992 N   0  0  0  0  0  0  0  0  0  0  0  0
   11.8040   -2.2664    1.3403 C   0  0  0  0  0  0  0  0  0  0  0  0
   11.5845   -2.8689    2.2295 H   0  0  0  0  0  0  0  0  0  0  0  0
   11.7501   -1.2059    1.6126 H   0  0  0  0  0  0  0  0  0  0  0  0
   11.0229   -2.4653    0.5962 H   0  0  0  0  0  0  0  0  0  0  0  0
   14.3278   -2.5391    1.4662 C   0  0  0  0  0  0  0  0  0  0  0  0
   14.4998   -2.1386    2.7603 N   0  0  0  0  0  0  0  0  0  0  0  0
   13.6822   -2.0648    3.3627 H   0  0  0  0  0  0  0  0  0  0  0  0
   15.4204   -2.2568    3.1794 H   0  0  0  0  0  0  0  0  0  0  0  0
   15.3230   -2.9296    0.7350 N   0  0  0  0  0  4  0  0  0  0  0  0
   16.2844   -2.9885    1.0739 H   0  0  0  0  0  0  0  0  0  0  0  0
   14.3613   -5.5612   -1.6727 C   0  0  0  0  0  0  0  0  0  0  0  0
   13.4368   -5.1270   -2.0431 H   0  0  0  0  0  0  0  0  0  0  0  0
   14.6790   -6.8862   -1.9704 C   0  0  0  0  0  0  0  0  0  0  0  0
   13.9805   -7.4807   -2.5508 H   0  0  0  0  0  0  0  0  0  0  0  0
  1  2  1  0
  2  3  2  0
  3  4  1  0
  3  5  1  0
  5  6  1  0
  5  7  2  0
  7  8  1  0
  8  9  1  0
  9 10  2  0
 10 11  1  0
 10 12  1  0
 12 13  1  0
 12 14  2  0
 14 15  1  0
 14 16  1  0
 16 17  1  0
 17 18  1  0
 18 19  1  0
 18 20  1  0
 18 21  1  0
 21 22  1  0
 21 23  1  0
 21 24  1  0
 24 25  1  0
 25 26  1  0
 25 27  1  0
 25 28  1  0
 24 29  1  0
 29 30  1  0
 29 31  1  0
 29 32  1  0
 32 33  1  0
 32 34  1  0
 16 35  2  0
 35 36  1  0
  8 37  1  0
 37 38  2  0
 37 39  1  0
 39 40  1  0
 40 41  1  0
 40 42  1  0
 40 43  1  0
 39 44  1  0
 44 45  1  0
 45 46  1  0
 45 47  1  0
 44 48  2  0
 48 49  1  0
  7 50  1  0
 50 51  1  0
 50 52  2  0
 52 53  1  0
 52  2  1  0
 48  8  1  0
 35  9  1  0
 32 17  1  0
M  CHG  1  48   1
M  END
>  <score>  (248) 
5.50319

$$$$

     RDKit          3D

 52 54  0  0  0  0  0  0  0  0999 V2000
   16.2461   -8.6697   -1.8478 H   0  0  0  0  0  0  0  0  0  0  0  0
   15.9338   -7.6656   -1.5765 C   0  0  0  0  0  0  0  0  0  0  0  0
   16.7802   -6.8581   -0.8126 C   0  0  0  0  0  0  0  0  0  0  0  0
   17.7492   -7.2269   -0.4925 H   0  0  0  0  0  0  0  0  0  0  0  0
   16.3873   -5.5628   -0.4674 C   0  0  0  0  0  0  0  0  0  0  0  0
   17.0561   -4.9345    0.1143 H   0  0  0  0  0  0  0  0  0  0  0  0
   15.1425   -5.0581   -0.8704 C   0  0  0  0  0  0  0  0  0  0  0  0
   14.7795   -3.6162   -0.5447 C   0  0  0  0  0  0  0  0  0  0  0  0
   15.3980   -2.6481   -1.5335 C   0  0  0  0  0  0  0  0  0  0  0  0
   15.7951   -3.0245   -2.8289 C   0  0  0  0  0  0  0  0  0  0  0  0
   15.6822   -4.0588   -3.1378 H   0  0  0  0  0  0  0  0  0  0  0  0
   16.3230   -2.0789   -3.7189 C   0  0  0  0  0  0  0  0  0  0  0  0
   16.6449   -2.3882   -4.7110 H   0  0  0  0  0  0  0  0  0  0  0  0
   16.4178   -0.7364   -3.3244 C   0  0  0  0  0  0  0  0  0  0  0  0
   16.8186    0.0098   -3.9988 H   0  0  0  0  0  0  0  0  0  0  0  0
   15.9834   -0.3471   -2.0571 C   0  0  0  0  0  0  0  0  0  0  0  0
   15.9528    0.9701   -1.6378 N   0  0  0  0  0  0  0  0  0  0  0  0
   15.6528    1.1112   -0.6740 H   0  0  0  0  0  0  0  0  0  0  0  0
   15.8424    2.0870   -2.5953 C   0  0  0  0  0  0  0  0  0  0  0  0
   15.4379    1.7244   -3.5448 H   0  0  0  0  0  0  0  0  0  0  0  0
   16.8471    2.4761   -2.7875 H   0  0  0  0  0  0  0  0  0  0  0  0
   14.9222    3.2016   -2.0777 C   0  0  0  0  0  0  0  0  0  0  0  0
   13.8864    2.8511   -2.0834 H   0  0  0  0  0  0  0  0  0  0  0  0
   15.1862    3.4309   -1.0409 H   0  0  0  0  0  0  0  0  0  0  0  0
   15.0810    4.4032   -2.9235 N   0  0  0  0  0  0  0  0  0  0  0  0
   16.3164    5.1366   -2.6322 C   0  0  0  0  0  0  0  0  0  0  0  0
   16.1624    5.7707   -1.7562 H   0  0  0  0  0  0  0  0  0  0  0  0
   17.1368    4.4395   -2.4282 H   0  0  0  0  0  0  0  0  0  0  0  0
   16.6126    5.7541   -3.4784 H   0  0  0  0  0  0  0  0  0  0  0  0
   13.8654    5.1710   -3.2505 C   0  0  0  0  0  0  0  0  0  0  0  0
   13.4620    5.6811   -2.3746 H   0  0  0  0  0  0  0  0  0  0  0  0
   13.0963    4.4912   -3.6221 H   0  0  0  0  0  0  0  0  0  0  0  0
   14.0675    5.9162   -4.0247 H   0  0  0  0  0  0  0  0  0  0  0  0
   15.5049   -1.2971   -1.1730 C   0  0  0  0  0  0  0  0  0  0  0  0
   15.1924   -0.9539   -0.1930 H   0  0  0  0  0  0  0  0  0  0  0  0
   13.2737   -3.3084   -0.4673 C   0  0  0  0  0  0  0  0  0  0  0  0
   12.4205   -3.5536   -1.3176 O   0  0  0  0  0  0  0  0  0  0  0  0
   13.0028   -2.6900    0.7416 N   0  0  0  0  0  0  0  0  0  0  0  0
   11.6979   -2.2653    1.2448 C   0  0  0  0  0  0  0  0  0  0  0  0
   11.7249   -1.2130    1.5522 H   0  0  0  0  0  0  0  0  0  0  0  0
   10.9175   -2.3723    0.4835 H   0  0  0  0  0  0  0  0  0  0  0  0
   11.4177   -2.8758    2.1105 H   0  0  0  0  0  0  0  0  0  0  0  0
   14.1715   -2.6930    1.4736 C   0  0  0  0  0  0  0  0  0  0  0  0
   14.3088   -2.1765    2.7288 N   0  0  0  0  0  0  0  0  0  0  0  0
   13.4602   -2.0069    3.2701 H   0  0  0  0  0  0  0  0  0  0  0  0
   15.1978   -2.2900    3.2088 H   0  0  0  0  0  0  0  0  0  0  0  0
   15.1518   -3.2442    0.8398 N   0  0  0  0  0  4  0  0  0  0  0  0
   16.1132   -3.2705    1.1911 H   0  0  0  0  0  0  0  0  0  0  0  0
   14.2922   -5.8800   -1.6330 C   0  0  0  0  0  0  0  0  0  0  0  0
   13.3265   -5.5128   -1.9677 H   0  0  0  0  0  0  0  0  0  0  0  0
   14.6876   -7.1783   -1.9821 C   0  0  0  0  0  0  0  0  0  0  0  0
   14.0338   -7.8078   -2.5769 H   0  0  0  0  0  0  0  0  0  0  0  0
  1  2  1  0
  2  3  2  0
  3  4  1  0
  3  5  1  0
  5  6  1  0
  5  7  2  0
  7  8  1  0
  8  9  1  0
  9 10  2  0
 10 11  1  0
 10 12  1  0
 12 13  1  0
 12 14  2  0
 14 15  1  0
 14 16  1  0
 16 17  1  0
 17 18  1  0
 17 19  1  0
 19 20  1  0
 19 21  1  0
 19 22  1  0
 22 23  1  0
 22 24  1  0
 22 25  1  0
 25 26  1  0
 26 27  1  0
 26 28  1  0
 26 29  1  0
 25 30  1  0
 30 31  1  0
 30 32  1  0
 30 33  1  0
 16 34  2  0
 34 35  1  0
  8 36  1  0
 36 37  2  0
 36 38  1  0
 38 39  1  0
 39 40  1  0
 39 41  1  0
 39 42  1  0
 38 43  1  0
 43 44  1  0
 44 45  1  0
 44 46  1  0
 43 47  2  0
 47 48  1  0
  7 49  1  0
 49 50  1  0
 49 51  2  0
 51 52  1  0
 51  2  1  0
 47  8  1  0
 34  9  1  0
M  CHG  1  47   1
M  END
>  <score>  (249) 
5.50296

$$$$

     RDKit          3D

 53 56  0  0  0  0  0  0  0  0999 V2000
   17.1474  -11.4783    1.3863 H   0  0  0  0  0  0  0  0  0  0  0  0
   16.2348  -10.9801    1.0591 C   0  0  0  0  0  0  0  0  0  0  0  0
   16.1153   -9.5955    1.1889 C   0  0  0  0  0  0  0  0  0  0  0  0
   16.8787   -9.0438    1.7120 H   0  0  0  0  0  0  0  0  0  0  0  0
   15.0030   -8.9272    0.6791 C   0  0  0  0  0  0  0  0  0  0  0  0
   14.9138   -7.8488    0.7888 H   0  0  0  0  0  0  0  0  0  0  0  0
   13.9923   -9.6361    0.0452 C   0  0  0  0  0  0  0  0  0  0  0  0
   12.8777   -8.8717   -0.6133 C   0  0  0  0  0  0  0  0  0  0  0  0
   11.9288   -9.3806   -0.4489 H   0  0  0  0  0  0  0  0  0  0  0  0
   12.8061   -7.8667   -0.1866 H   0  0  0  0  0  0  0  0  0  0  0  0
   13.1223   -8.7184   -2.1145 C   0  0  0  0  0  0  0  0  0  0  0  0
   12.5716   -9.4586   -2.9111 O   0  0  0  0  0  0  0  0  0  0  0  0
   13.7534   -7.6231   -2.6572 N   0  0  0  0  0  0  0  0  0  0  0  0
   13.7249   -7.5390   -3.6683 H   0  0  0  0  0  0  0  0  0  0  0  0
   14.6488   -6.8402   -1.9518 C   0  0  0  0  0  0  0  0  0  0  0  0
   15.8154   -7.3958   -1.4246 C   0  0  0  0  0  0  0  0  0  0  0  0
   16.0022   -8.4538   -1.5707 H   0  0  0  0  0  0  0  0  0  0  0  0
   16.7313   -6.5965   -0.7273 C   0  0  0  0  0  0  0  0  0  0  0  0
   17.6557   -7.0205   -0.3383 H   0  0  0  0  0  0  0  0  0  0  0  0
   16.4477   -5.2405   -0.5260 C   0  0  0  0  0  0  0  0  0  0  0  0
   17.1539   -4.6141    0.0134 H   0  0  0  0  0  0  0  0  0  0  0  0
   15.2490   -4.6826   -1.0004 C   0  0  0  0  0  0  0  0  0  0  0  0
   14.8768   -3.2437   -0.6893 C   0  0  0  0  0  0  0  0  0  0  0  0
   15.4030   -2.2560   -1.7180 C   0  0  0  0  0  0  0  0  0  0  0  0
   15.9296   -2.6796   -2.9507 C   0  0  0  0  0  0  0  0  0  0  0  0
   15.9724   -3.7418   -3.1817 H   0  0  0  0  0  0  0  0  0  0  0  0
   16.4033   -1.7438   -3.8766 C   0  0  0  0  0  0  0  0  0  0  0  0
   16.8190   -2.0793   -4.8195 H   0  0  0  0  0  0  0  0  0  0  0  0
   16.3488   -0.3776   -3.5874 C   0  0  0  0  0  0  0  0  0  0  0  0
   16.7304    0.3423   -4.3051 H   0  0  0  0  0  0  0  0  0  0  0  0
   15.8013    0.0549   -2.3773 C   0  0  0  0  0  0  0  0  0  0  0  0
   15.7493    1.1145   -2.1488 H   0  0  0  0  0  0  0  0  0  0  0  0
   15.3245   -0.8787   -1.4543 C   0  0  0  0  0  0  0  0  0  0  0  0
   14.8955   -0.5345   -0.5170 H   0  0  0  0  0  0  0  0  0  0  0  0
   13.3560   -3.0757   -0.5049 C   0  0  0  0  0  0  0  0  0  0  0  0
   12.4789   -3.3013   -1.3342 O   0  0  0  0  0  0  0  0  0  0  0  0
   13.0898   -2.6479    0.7799 N   0  0  0  0  0  0  0  0  0  0  0  0
   11.7810   -2.2952    1.3272 C   0  0  0  0  0  0  0  0  0  0  0  0
   11.5589   -2.8894    2.2203 H   0  0  0  0  0  0  0  0  0  0  0  0
   11.7534   -1.2347    1.5993 H   0  0  0  0  0  0  0  0  0  0  0  0
   10.9886   -2.4792    0.5916 H   0  0  0  0  0  0  0  0  0  0  0  0
   14.3002   -2.5503    1.4306 C   0  0  0  0  0  0  0  0  0  0  0  0
   14.4852   -2.1597    2.7215 N   0  0  0  0  0  0  0  0  0  0  0  0
   15.4154   -2.2559    3.1258 H   0  0  0  0  0  0  0  0  0  0  0  0
   13.6761   -2.0930    3.3332 H   0  0  0  0  0  0  0  0  0  0  0  0
   15.2974   -2.8832    0.6809 N   0  0  0  0  0  4  0  0  0  0  0  0
   16.2607   -2.9509    1.0163 H   0  0  0  0  0  0  0  0  0  0  0  0
   14.3820   -5.4890   -1.7569 C   0  0  0  0  0  0  0  0  0  0  0  0
   13.4728   -5.0774   -2.1800 H   0  0  0  0  0  0  0  0  0  0  0  0
   14.0484  -11.0372    0.0190 C   0  0  0  0  0  0  0  0  0  0  0  0
   13.2059  -11.6043   -0.3544 H   0  0  0  0  0  0  0  0  0  0  0  0
   15.1686  -11.7059    0.5230 C   0  0  0  0  0  0  0  0  0  0  0  0
   15.2099  -12.7905    0.4993 H   0  0  0  0  0  0  0  0  0  0  0  0
  1  2  1  0
  2  3  2  0
  3  4  1  0
  3  5  1  0
  5  6  1  0
  5  7  2  0
  7  8  1  0
  8  9  1  0
  8 10  1  0
  8 11  1  0
 11 12  2  0
 11 13  1  0
 13 14  1  0
 13 15  1  0
 15 16  2  0
 16 17  1  0
 16 18  1  0
 18 19  1  0
 18 20  2  0
 20 21  1  0
 20 22  1  0
 22 23  1  0
 23 24  1  0
 24 25  2  0
 25 26  1  0
 25 27  1  0
 27 28  1  0
 27 29  2  0
 29 30  1  0
 29 31  1  0
 31 32  1  0
 31 33  2  0
 33 34  1  0
 23 35  1  0
 35 36  2  0
 35 37  1  0
 37 38  1  0
 38 39  1  0
 38 40  1  0
 38 41  1  0
 37 42  1  0
 42 43  1  0
 43 44  1  0
 43 45  1  0
 42 46  2  0
 46 47  1  0
 22 48  2  0
 48 49  1  0
  7 50  1  0
 50 51  1  0
 50 52  2  0
 52 53  1  0
 52  2  1  0
 48 15  1  0
 46 23  1  0
 33 24  1  0
M  CHG  1  46   1
M  END
>  <score>  (250) 
5.49798

$$$$

     RDKit          3D

 50 52  0  0  0  0  0  0  0  0999 V2000
   16.0935   -8.4496   -1.6194 H   0  0  0  0  0  0  0  0  0  0  0  0
   15.8594   -7.3977   -1.4883 C   0  0  0  0  0  0  0  0  0  0  0  0
   16.7449   -6.5591   -0.8050 C   0  0  0  0  0  0  0  0  0  0  0  0
   17.6738   -6.9578   -0.4076 H   0  0  0  0  0  0  0  0  0  0  0  0
   16.4203   -5.2123   -0.6083 C   0  0  0  0  0  0  0  0  0  0  0  0
   17.0879   -4.5621   -0.0499 H   0  0  0  0  0  0  0  0  0  0  0  0
   15.2039   -4.6877   -1.0691 C   0  0  0  0  0  0  0  0  0  0  0  0
   14.8367   -3.2386   -0.7539 C   0  0  0  0  0  0  0  0  0  0  0  0
   15.3842   -2.2244   -1.7560 C   0  0  0  0  0  0  0  0  0  0  0  0
   15.9337   -2.6164   -2.9919 C   0  0  0  0  0  0  0  0  0  0  0  0
   15.9860   -3.6754   -3.2252 H   0  0  0  0  0  0  0  0  0  0  0  0
   16.4116   -1.6653   -3.9113 C   0  0  0  0  0  0  0  0  0  0  0  0
   16.8428   -1.9774   -4.8603 H   0  0  0  0  0  0  0  0  0  0  0  0
   16.3302   -0.3041   -3.5919 C   0  0  0  0  0  0  0  0  0  0  0  0
   16.6979    0.4688   -4.2571 H   0  0  0  0  0  0  0  0  0  0  0  0
   15.7663    0.0970   -2.3891 C   0  0  0  0  0  0  0  0  0  0  0  0
   15.6816    1.4506   -2.1264 N   0  0  0  0  0  0  0  0  0  0  0  0
   16.0911    2.0700   -2.8200 H   0  0  0  0  0  0  0  0  0  0  0  0
   15.1599    2.0130   -0.8697 C   0  0  0  0  0  0  0  0  0  0  0  0
   15.7221    1.6257   -0.0094 H   0  0  0  0  0  0  0  0  0  0  0  0
   14.1068    1.7377   -0.7332 H   0  0  0  0  0  0  0  0  0  0  0  0
   15.2922    3.5341   -0.9336 C   0  0  0  0  0  0  0  0  0  0  0  0
   16.3331    3.8053   -1.1469 H   0  0  0  0  0  0  0  0  0  0  0  0
   14.6693    3.9257   -1.7458 H   0  0  0  0  0  0  0  0  0  0  0  0
   14.8785    4.1745    0.3911 C   0  0  0  0  0  0  0  0  0  0  0  0
   15.1224    5.2393    0.3602 H   0  0  0  0  0  0  0  0  0  0  0  0
   15.4260    3.7070    1.2172 H   0  0  0  0  0  0  0  0  0  0  0  0
   13.3954    4.0504    0.6584 C   0  0  0  0  0  0  0  0  0  0  0  0
   12.8156    4.4250   -0.1902 H   0  0  0  0  0  0  0  0  0  0  0  0
   13.1772    4.6466    1.5435 H   0  0  0  0  0  0  0  0  0  0  0  0
   13.1194    3.0117    0.8452 H   0  0  0  0  0  0  0  0  0  0  0  0
   15.2950   -0.8452   -1.4820 C   0  0  0  0  0  0  0  0  0  0  0  0
   14.8677   -0.4636   -0.5601 H   0  0  0  0  0  0  0  0  0  0  0  0
   13.3164   -3.0323   -0.5925 C   0  0  0  0  0  0  0  0  0  0  0  0
   12.4612   -3.1356   -1.4709 O   0  0  0  0  0  0  0  0  0  0  0  0
   13.0356   -2.6785    0.7126 N   0  0  0  0  0  0  0  0  0  0  0  0
   11.7316   -2.3139    1.2735 C   0  0  0  0  0  0  0  0  0  0  0  0
   11.5100   -2.9166    2.1629 H   0  0  0  0  0  0  0  0  0  0  0  0
   11.7197   -1.2548    1.5561 H   0  0  0  0  0  0  0  0  0  0  0  0
   10.9284   -2.4788    0.5472 H   0  0  0  0  0  0  0  0  0  0  0  0
   14.2456   -2.6192    1.3738 C   0  0  0  0  0  0  0  0  0  0  0  0
   14.4161   -2.2895    2.6787 N   0  0  0  0  0  0  0  0  0  0  0  0
   13.6053   -2.1208    3.2657 H   0  0  0  0  0  0  0  0  0  0  0  0
   15.3538   -2.3248    3.0793 H   0  0  0  0  0  0  0  0  0  0  0  0
   15.2560   -2.9150    0.6267 N   0  0  0  0  0  4  0  0  0  0  0  0
   16.2216   -2.9877    0.9666 H   0  0  0  0  0  0  0  0  0  0  0  0
   14.3243   -5.5390   -1.7635 C   0  0  0  0  0  0  0  0  0  0  0  0
   13.3671   -5.1547   -2.1043 H   0  0  0  0  0  0  0  0  0  0  0  0
   14.6508   -6.8874   -1.9730 C   0  0  0  0  0  0  0  0  0  0  0  0
   13.9556   -7.5477   -2.4839 H   0  0  0  0  0  0  0  0  0  0  0  0
  1  2  1  0
  2  3  2  0
  3  4  1  0
  3  5  1  0
  5  6  1  0
  5  7  2  0
  7  8  1  0
  8  9  1  0
  9 10  2  0
 10 11  1  0
 10 12  1  0
 12 13  1  0
 12 14  2  0
 14 15  1  0
 14 16  1  0
 16 17  1  0
 17 18  1  0
 17 19  1  0
 19 20  1  0
 19 21  1  0
 19 22  1  0
 22 23  1  0
 22 24  1  0
 22 25  1  0
 25 26  1  0
 25 27  1  0
 25 28  1  0
 28 29  1  0
 28 30  1  0
 28 31  1  0
 16 32  2  0
 32 33  1  0
  8 34  1  0
 34 35  2  0
 34 36  1  0
 36 37  1  0
 37 38  1  0
 37 39  1  0
 37 40  1  0
 36 41  1  0
 41 42  1  0
 42 43  1  0
 42 44  1  0
 41 45  2  0
 45 46  1  0
  7 47  1  0
 47 48  1  0
 47 49  2  0
 49 50  1  0
 49  2  1  0
 45  8  1  0
 32  9  1  0
M  CHG  1  45   1
M  END
>  <score>  (251) 
5.49239

$$$$

     RDKit          3D

 48 51  0  0  0  0  0  0  0  0999 V2000
   16.0847   -8.3581   -1.6448 H   0  0  0  0  0  0  0  0  0  0  0  0
   15.8577   -7.3081   -1.4898 C   0  0  0  0  0  0  0  0  0  0  0  0
   16.7635   -6.4880   -0.8080 C   0  0  0  0  0  0  0  0  0  0  0  0
   17.6998   -6.8919   -0.4347 H   0  0  0  0  0  0  0  0  0  0  0  0
   16.4612   -5.1401   -0.5935 C   0  0  0  0  0  0  0  0  0  0  0  0
   17.1657   -4.5077   -0.0597 H   0  0  0  0  0  0  0  0  0  0  0  0
   15.2448   -4.6008   -1.0419 C   0  0  0  0  0  0  0  0  0  0  0  0
   14.8730   -3.1576   -0.7461 C   0  0  0  0  0  0  0  0  0  0  0  0
   15.3924   -2.1709   -1.7868 C   0  0  0  0  0  0  0  0  0  0  0  0
   15.9361   -2.5771   -3.0185 C   0  0  0  0  0  0  0  0  0  0  0  0
   16.0318   -3.6375   -3.2389 H   0  0  0  0  0  0  0  0  0  0  0  0
   16.3416   -1.6245   -3.9666 C   0  0  0  0  0  0  0  0  0  0  0  0
   16.7665   -1.9477   -4.9141 H   0  0  0  0  0  0  0  0  0  0  0  0
   16.2185   -0.2545   -3.6935 C   0  0  0  0  0  0  0  0  0  0  0  0
   16.5659    0.4605   -4.4376 H   0  0  0  0  0  0  0  0  0  0  0  0
   15.7045    0.1693   -2.4527 C   0  0  0  0  0  0  0  0  0  0  0  0
   15.6721    1.5848   -2.0414 C   0  0  0  0  0  0  0  0  0  0  0  0
   16.1422    1.8674   -0.9391 O   0  0  0  0  0  0  0  0  0  0  0  0
   15.0691    2.6588   -2.8640 C   0  0  0  0  0  0  0  0  0  0  0  0
   14.1689    2.4139   -3.9213 C   0  0  0  0  0  0  0  0  0  0  0  0
   13.9091    1.3964   -4.2046 H   0  0  0  0  0  0  0  0  0  0  0  0
   13.5672    3.4849   -4.5939 C   0  0  0  0  0  0  0  0  0  0  0  0
   12.8446    3.3098   -5.3816 H   0  0  0  0  0  0  0  0  0  0  0  0
   13.8549    4.8006   -4.2351 C   0  0  0  0  0  0  0  0  0  0  0  0
   13.2264    5.8128   -4.8657 F   0  0  0  0  0  0  0  0  0  0  0  0
   14.7787    5.0470   -3.2214 C   0  0  0  0  0  0  0  0  0  0  0  0
   15.0345    6.0571   -2.9372 H   0  0  0  0  0  0  0  0  0  0  0  0
   15.3729    3.9920   -2.5409 C   0  0  0  0  0  0  0  0  0  0  0  0
   16.0672    4.2069   -1.7321 H   0  0  0  0  0  0  0  0  0  0  0  0
   15.2817   -0.7997   -1.5311 C   0  0  0  0  0  0  0  0  0  0  0  0
   14.8651   -0.4809   -0.5792 H   0  0  0  0  0  0  0  0  0  0  0  0
   13.3508   -2.9852   -0.5540 C   0  0  0  0  0  0  0  0  0  0  0  0
   12.4681   -3.1732   -1.3897 O   0  0  0  0  0  0  0  0  0  0  0  0
   13.0867   -2.6067    0.7461 N   0  0  0  0  0  0  0  0  0  0  0  0
   11.7752   -2.2924    1.3132 C   0  0  0  0  0  0  0  0  0  0  0  0
   10.9786   -2.4808    0.5835 H   0  0  0  0  0  0  0  0  0  0  0  0
   11.5750   -2.9065    2.1985 H   0  0  0  0  0  0  0  0  0  0  0  0
   11.7256   -1.2367    1.6021 H   0  0  0  0  0  0  0  0  0  0  0  0
   14.2969   -2.5519    1.4033 C   0  0  0  0  0  0  0  0  0  0  0  0
   14.4670   -2.3048    2.7338 N   0  0  0  0  0  0  0  0  0  0  0  0
   13.6633   -2.0770    3.3153 H   0  0  0  0  0  0  0  0  0  0  0  0
   15.4129   -2.2226    3.1058 H   0  0  0  0  0  0  0  0  0  0  0  0
   15.2982   -2.7979    0.6248 N   0  0  0  0  0  4  0  0  0  0  0  0
   16.2550   -2.9136    0.9662 H   0  0  0  0  0  0  0  0  0  0  0  0
   14.3563   -5.4269   -1.7498 C   0  0  0  0  0  0  0  0  0  0  0  0
   13.4191   -5.0208   -2.1194 H   0  0  0  0  0  0  0  0  0  0  0  0
   14.6567   -6.7740   -1.9680 C   0  0  0  0  0  0  0  0  0  0  0  0
   13.9496   -7.4014   -2.5015 H   0  0  0  0  0  0  0  0  0  0  0  0
  1  2  1  0
  2  3  2  0
  3  4  1  0
  3  5  1  0
  5  6  1  0
  5  7  2  0
  7  8  1  0
  8  9  1  0
  9 10  2  0
 10 11  1  0
 10 12  1  0
 12 13  1  0
 12 14  2  0
 14 15  1  0
 14 16  1  0
 16 17  1  0
 17 18  2  0
 17 19  1  0
 19 20  2  0
 20 21  1  0
 20 22  1  0
 22 23  1  0
 22 24  2  0
 24 25  1  0
 24 26  1  0
 26 27  1  0
 26 28  2  0
 28 29  1  0
 16 30  2  0
 30 31  1  0
  8 32  1  0
 32 33  2  0
 32 34  1  0
 34 35  1  0
 35 36  1  0
 35 37  1  0
 35 38  1  0
 34 39  1  0
 39 40  1  0
 40 41  1  0
 40 42  1  0
 39 43  2  0
 43 44  1  0
  7 45  1  0
 45 46  1  0
 45 47  2  0
 47 48  1  0
 47  2  1  0
 43  8  1  0
 30  9  1  0
 28 19  1  0
M  CHG  1  43   1
M  END
>  <score>  (252) 
5.48854

$$$$

     RDKit          3D

 54 57  0  0  0  0  0  0  0  0999 V2000
   12.9791   -9.1921    3.8932 H   0  0  0  0  0  0  0  0  0  0  0  0
   12.8984   -8.9503    2.8375 C   0  0  0  0  0  0  0  0  0  0  0  0
   13.6732   -9.6475    1.9058 C   0  0  0  0  0  0  0  0  0  0  0  0
   14.3600  -10.4180    2.2433 H   0  0  0  0  0  0  0  0  0  0  0  0
   13.5634   -9.3334    0.5425 C   0  0  0  0  0  0  0  0  0  0  0  0
   14.1490   -9.8523   -0.2054 H   0  0  0  0  0  0  0  0  0  0  0  0
   12.6718   -8.3494    0.1125 C   0  0  0  0  0  0  0  0  0  0  0  0
   12.5244   -8.0637   -1.2451 N   0  0  0  0  0  0  0  0  0  0  0  0
   11.1889   -7.6780   -1.7403 C   0  0  0  0  0  0  0  0  0  0  0  0
   11.1038   -6.5832   -1.8031 H   0  0  0  0  0  0  0  0  0  0  0  0
   11.0000   -8.1258   -2.7152 H   0  0  0  0  0  0  0  0  0  0  0  0
   10.4136   -8.0806   -1.0793 H   0  0  0  0  0  0  0  0  0  0  0  0
   13.7152   -7.8992   -2.1070 C   0  0  0  0  0  0  0  0  0  0  0  0
   14.1534   -8.8830   -2.3227 H   0  0  0  0  0  0  0  0  0  0  0  0
   13.4094   -7.4483   -3.0530 H   0  0  0  0  0  0  0  0  0  0  0  0
   14.7425   -6.9563   -1.5101 C   0  0  0  0  0  0  0  0  0  0  0  0
   16.0284   -7.3929   -1.1565 C   0  0  0  0  0  0  0  0  0  0  0  0
   16.3041   -8.4369   -1.2669 H   0  0  0  0  0  0  0  0  0  0  0  0
   16.9769   -6.4784   -0.6789 C   0  0  0  0  0  0  0  0  0  0  0  0
   17.9739   -6.8132   -0.4088 H   0  0  0  0  0  0  0  0  0  0  0  0
   16.6456   -5.1298   -0.5279 C   0  0  0  0  0  0  0  0  0  0  0  0
   17.3834   -4.4257   -0.1519 H   0  0  0  0  0  0  0  0  0  0  0  0
   15.3467   -4.6850   -0.8133 C   0  0  0  0  0  0  0  0  0  0  0  0
   14.9360   -3.2421   -0.5616 C   0  0  0  0  0  0  0  0  0  0  0  0
   15.4310   -2.2772   -1.6284 C   0  0  0  0  0  0  0  0  0  0  0  0
   15.9265   -2.7227   -2.8653 C   0  0  0  0  0  0  0  0  0  0  0  0
   15.9590   -3.7873   -3.0748 H   0  0  0  0  0  0  0  0  0  0  0  0
   16.3888   -1.8092   -3.8237 C   0  0  0  0  0  0  0  0  0  0  0  0
   16.7892   -2.1569   -4.7710 H   0  0  0  0  0  0  0  0  0  0  0  0
   16.3472   -0.4359   -3.5593 C   0  0  0  0  0  0  0  0  0  0  0  0
   16.7228    0.2740   -4.2914 H   0  0  0  0  0  0  0  0  0  0  0  0
   15.8165    0.0229   -2.3501 C   0  0  0  0  0  0  0  0  0  0  0  0
   15.7692    1.0884   -2.1404 H   0  0  0  0  0  0  0  0  0  0  0  0
   15.3537   -0.8932   -1.3996 C   0  0  0  0  0  0  0  0  0  0  0  0
   14.9410   -0.5292   -0.4632 H   0  0  0  0  0  0  0  0  0  0  0  0
   13.4168   -3.0675   -0.3770 C   0  0  0  0  0  0  0  0  0  0  0  0
   12.5271   -3.3568   -1.1751 O   0  0  0  0  0  0  0  0  0  0  0  0
   13.1548   -2.5470    0.8717 N   0  0  0  0  0  0  0  0  0  0  0  0
   11.8354   -2.2448    1.4229 C   0  0  0  0  0  0  0  0  0  0  0  0
   11.0549   -2.4555    0.6831 H   0  0  0  0  0  0  0  0  0  0  0  0
   11.7597   -1.1857    1.6949 H   0  0  0  0  0  0  0  0  0  0  0  0
   11.6335   -2.8550    2.3109 H   0  0  0  0  0  0  0  0  0  0  0  0
   14.3654   -2.4500    1.5205 C   0  0  0  0  0  0  0  0  0  0  0  0
   14.5478   -2.0589    2.8055 N   0  0  0  0  0  0  0  0  0  0  0  0
   13.7422   -2.0431    3.4275 H   0  0  0  0  0  0  0  0  0  0  0  0
   15.4808   -2.1736    3.1948 H   0  0  0  0  0  0  0  0  0  0  0  0
   15.3599   -2.8123    0.7845 N   0  0  0  0  0  4  0  0  0  0  0  0
   16.3080   -2.9389    1.1455 H   0  0  0  0  0  0  0  0  0  0  0  0
   14.4207   -5.6029   -1.3320 C   0  0  0  0  0  0  0  0  0  0  0  0
   13.4256   -5.2607   -1.5964 H   0  0  0  0  0  0  0  0  0  0  0  0
   11.9060   -7.6578    1.0531 C   0  0  0  0  0  0  0  0  0  0  0  0
   11.2374   -6.8815    0.7016 H   0  0  0  0  0  0  0  0  0  0  0  0
   12.0205   -7.9479    2.4152 C   0  0  0  0  0  0  0  0  0  0  0  0
   11.4310   -7.3919    3.1361 H   0  0  0  0  0  0  0  0  0  0  0  0
  1  2  1  0
  2  3  2  0
  3  4  1  0
  3  5  1  0
  5  6  1  0
  5  7  2  0
  7  8  1  0
  8  9  1  0
  9 10  1  0
  9 11  1  0
  9 12  1  0
  8 13  1  0
 13 14  1  0
 13 15  1  0
 13 16  1  0
 16 17  2  0
 17 18  1  0
 17 19  1  0
 19 20  1  0
 19 21  2  0
 21 22  1  0
 21 23  1  0
 23 24  1  0
 24 25  1  0
 25 26  2  0
 26 27  1  0
 26 28  1  0
 28 29  1  0
 28 30  2  0
 30 31  1  0
 30 32  1  0
 32 33  1  0
 32 34  2  0
 34 35  1  0
 24 36  1  0
 36 37  2  0
 36 38  1  0
 38 39  1  0
 39 40  1  0
 39 41  1  0
 39 42  1  0
 38 43  1  0
 43 44  1  0
 44 45  1  0
 44 46  1  0
 43 47  2  0
 47 48  1  0
 23 49  2  0
 49 50  1  0
  7 51  1  0
 51 52  1  0
 51 53  2  0
 53 54  1  0
 53  2  1  0
 49 16  1  0
 47 24  1  0
 34 25  1  0
M  CHG  1  47   1
M  END
>  <score>  (253) 
5.4877

$$$$

     RDKit          3D

 55 58  0  0  0  0  0  0  0  0999 V2000
   16.0972   -8.4162   -1.6571 H   0  0  0  0  0  0  0  0  0  0  0  0
   15.8574   -7.3703   -1.4907 C   0  0  0  0  0  0  0  0  0  0  0  0
   16.7563   -6.5477   -0.8036 C   0  0  0  0  0  0  0  0  0  0  0  0
   17.6967   -6.9469   -0.4337 H   0  0  0  0  0  0  0  0  0  0  0  0
   16.4436   -5.2029   -0.5811 C   0  0  0  0  0  0  0  0  0  0  0  0
   17.1457   -4.5726   -0.0431 H   0  0  0  0  0  0  0  0  0  0  0  0
   15.2209   -4.6661   -1.0178 C   0  0  0  0  0  0  0  0  0  0  0  0
   14.8510   -3.2200   -0.7093 C   0  0  0  0  0  0  0  0  0  0  0  0
   15.3928   -2.2151   -1.7237 C   0  0  0  0  0  0  0  0  0  0  0  0
   15.9147   -2.6417   -2.9569 C   0  0  0  0  0  0  0  0  0  0  0  0
   15.9461   -3.7027   -3.1858 H   0  0  0  0  0  0  0  0  0  0  0  0
   16.4002   -1.7246   -3.8933 C   0  0  0  0  0  0  0  0  0  0  0  0
   16.8039   -2.0672   -4.8413 H   0  0  0  0  0  0  0  0  0  0  0  0
   16.3744   -0.3604   -3.6012 C   0  0  0  0  0  0  0  0  0  0  0  0
   16.7570    0.3654   -4.3101 H   0  0  0  0  0  0  0  0  0  0  0  0
   15.8534    0.1019   -2.3956 C   0  0  0  0  0  0  0  0  0  0  0  0
   15.8947    1.4579   -2.2030 O   0  0  0  0  0  0  0  0  0  0  0  0
   15.2577    1.9818   -1.0294 C   0  0  0  0  0  0  0  0  0  0  0  0
   15.7744    1.6248   -0.1330 H   0  0  0  0  0  0  0  0  0  0  0  0
   14.2111    1.6603   -0.9876 H   0  0  0  0  0  0  0  0  0  0  0  0
   15.2964    3.5122   -1.0760 C   0  0  0  0  0  0  0  0  0  0  0  0
   15.0052    3.9210   -0.1048 H   0  0  0  0  0  0  0  0  0  0  0  0
   16.3162    3.8478   -1.2838 H   0  0  0  0  0  0  0  0  0  0  0  0
   14.3796    4.0004   -2.1234 N   0  0  0  0  0  0  0  0  0  0  0  0
   12.9655    3.6157   -2.0570 C   0  0  0  0  0  0  0  0  0  0  0  0
   12.5651    3.7732   -1.0513 H   0  0  0  0  0  0  0  0  0  0  0  0
   12.8238    2.5648   -2.3220 H   0  0  0  0  0  0  0  0  0  0  0  0
   12.2610    4.5267   -3.0604 C   0  0  0  0  0  0  0  0  0  0  0  0
   11.7603    3.9333   -3.8317 H   0  0  0  0  0  0  0  0  0  0  0  0
   11.5094    5.1344   -2.5486 H   0  0  0  0  0  0  0  0  0  0  0  0
   13.3652    5.4026   -3.6556 C   0  0  0  0  0  0  0  0  0  0  0  0
   13.7426    4.9383   -4.5708 H   0  0  0  0  0  0  0  0  0  0  0  0
   13.0310    6.4148   -3.9028 H   0  0  0  0  0  0  0  0  0  0  0  0
   14.4530    5.3752   -2.5911 C   0  0  0  0  0  0  0  0  0  0  0  0
   15.4365    5.6225   -2.9988 H   0  0  0  0  0  0  0  0  0  0  0  0
   14.2078    6.0362   -1.7558 H   0  0  0  0  0  0  0  0  0  0  0  0
   15.3427   -0.8257   -1.4690 C   0  0  0  0  0  0  0  0  0  0  0  0
   14.9212   -0.4522   -0.5409 H   0  0  0  0  0  0  0  0  0  0  0  0
   13.3305   -3.0336   -0.5455 C   0  0  0  0  0  0  0  0  0  0  0  0
   12.4666   -3.1894   -1.4057 O   0  0  0  0  0  0  0  0  0  0  0  0
   13.0600   -2.6535    0.7528 N   0  0  0  0  0  0  0  0  0  0  0  0
   11.7502   -2.3025    1.3011 C   0  0  0  0  0  0  0  0  0  0  0  0
   11.5262   -2.9038    2.1885 H   0  0  0  0  0  0  0  0  0  0  0  0
   10.9576   -2.4788    0.5659 H   0  0  0  0  0  0  0  0  0  0  0  0
   11.7267   -1.2441    1.5776 H   0  0  0  0  0  0  0  0  0  0  0  0
   14.2628   -2.5790    1.4203 C   0  0  0  0  0  0  0  0  0  0  0  0
   14.4446   -2.2258    2.7195 N   0  0  0  0  0  0  0  0  0  0  0  0
   15.3811   -2.3002    3.1192 H   0  0  0  0  0  0  0  0  0  0  0  0
   13.6346   -2.1151    3.3266 H   0  0  0  0  0  0  0  0  0  0  0  0
   15.2679   -2.8890    0.6669 N   0  0  0  0  0  4  0  0  0  0  0  0
   16.2242   -2.9930    1.0112 H   0  0  0  0  0  0  0  0  0  0  0  0
   14.3390   -5.4972   -1.7311 C   0  0  0  0  0  0  0  0  0  0  0  0
   13.3953   -5.1026   -2.0962 H   0  0  0  0  0  0  0  0  0  0  0  0
   14.6524   -6.8409   -1.9655 C   0  0  0  0  0  0  0  0  0  0  0  0
   13.9526   -7.4740   -2.5036 H   0  0  0  0  0  0  0  0  0  0  0  0
  1  2  1  0
  2  3  2  0
  3  4  1  0
  3  5  1  0
  5  6  1  0
  5  7  2  0
  7  8  1  0
  8  9  1  0
  9 10  2  0
 10 11  1  0
 10 12  1  0
 12 13  1  0
 12 14  2  0
 14 15  1  0
 14 16  1  0
 16 17  1  0
 17 18  1  0
 18 19  1  0
 18 20  1  0
 18 21  1  0
 21 22  1  0
 21 23  1  0
 21 24  1  0
 24 25  1  0
 25 26  1  0
 25 27  1  0
 25 28  1  0
 28 29  1  0
 28 30  1  0
 28 31  1  0
 31 32  1  0
 31 33  1  0
 31 34  1  0
 34 35  1  0
 34 36  1  0
 16 37  2  0
 37 38  1  0
  8 39  1  0
 39 40  2  0
 39 41  1  0
 41 42  1  0
 42 43  1  0
 42 44  1  0
 42 45  1  0
 41 46  1  0
 46 47  1  0
 47 48  1  0
 47 49  1  0
 46 50  2  0
 50 51  1  0
  7 52  1  0
 52 53  1  0
 52 54  2  0
 54 55  1  0
 54  2  1  0
 50  8  1  0
 37  9  1  0
 34 24  1  0
M  CHG  1  50   1
M  END
>  <score>  (254) 
5.48653

$$$$

     RDKit          3D

 49 52  0  0  0  0  0  0  0  0999 V2000
   16.0874   -8.4658   -1.7064 H   0  0  0  0  0  0  0  0  0  0  0  0
   15.8560   -7.4188   -1.5332 C   0  0  0  0  0  0  0  0  0  0  0  0
   16.7671   -6.6017   -0.8577 C   0  0  0  0  0  0  0  0  0  0  0  0
   17.7144   -7.0068   -0.5160 H   0  0  0  0  0  0  0  0  0  0  0  0
   16.4593   -5.2599   -0.6152 C   0  0  0  0  0  0  0  0  0  0  0  0
   17.1757   -4.6249   -0.1011 H   0  0  0  0  0  0  0  0  0  0  0  0
   15.2332   -4.7141   -1.0256 C   0  0  0  0  0  0  0  0  0  0  0  0
   14.9001   -3.2648   -0.7085 C   0  0  0  0  0  0  0  0  0  0  0  0
   15.4368   -2.3009   -1.7534 C   0  0  0  0  0  0  0  0  0  0  0  0
   15.9805   -2.7264   -2.9803 C   0  0  0  0  0  0  0  0  0  0  0  0
   16.0215   -3.7868   -3.2158 H   0  0  0  0  0  0  0  0  0  0  0  0
   16.4841   -1.7912   -3.8900 C   0  0  0  0  0  0  0  0  0  0  0  0
   16.9209   -2.1123   -4.8290 H   0  0  0  0  0  0  0  0  0  0  0  0
   16.4470   -0.4283   -3.5820 C   0  0  0  0  0  0  0  0  0  0  0  0
   16.8543    0.2975   -4.2785 H   0  0  0  0  0  0  0  0  0  0  0  0
   15.8652    0.0163   -2.3875 C   0  0  0  0  0  0  0  0  0  0  0  0
   15.8042    1.4480   -2.0760 C   0  0  0  0  0  0  0  0  0  0  0  0
   16.8582    2.2920   -2.4431 C   0  0  0  0  0  0  0  0  0  0  0  0
   17.7245    1.8583   -2.9320 H   0  0  0  0  0  0  0  0  0  0  0  0
   16.8158    3.6586   -2.1468 C   0  0  0  0  0  0  0  0  0  0  0  0
   17.6612    4.2898   -2.4092 H   0  0  0  0  0  0  0  0  0  0  0  0
   15.6882    4.2005   -1.5203 C   0  0  0  0  0  0  0  0  0  0  0  0
   15.6657    5.2710   -1.3245 H   0  0  0  0  0  0  0  0  0  0  0  0
   14.5955    3.3751   -1.1767 C   0  0  0  0  0  0  0  0  0  0  0  0
   13.3204    3.9694   -0.6102 C   0  0  0  0  0  0  0  0  0  0  0  0
   12.9578    5.0366   -1.3728 F   0  0  0  0  0  0  0  0  0  0  0  0
   12.2871    3.0805   -0.6283 F   0  0  0  0  0  0  0  0  0  0  0  0
   13.5248    4.3565    0.6750 F   0  0  0  0  0  0  0  0  0  0  0  0
   14.6946    1.9924   -1.4191 C   0  0  0  0  0  0  0  0  0  0  0  0
   13.8853    1.3260   -1.1323 H   0  0  0  0  0  0  0  0  0  0  0  0
   15.3528   -0.9270   -1.4929 C   0  0  0  0  0  0  0  0  0  0  0  0
   14.9089   -0.5898   -0.5600 H   0  0  0  0  0  0  0  0  0  0  0  0
   13.3980   -3.0163   -0.4739 C   0  0  0  0  0  0  0  0  0  0  0  0
   12.4996   -3.1663   -1.2969 O   0  0  0  0  0  0  0  0  0  0  0  0
   13.1825   -2.5847    0.8169 N   0  0  0  0  0  0  0  0  0  0  0  0
   11.8977   -2.2744    1.4497 C   0  0  0  0  0  0  0  0  0  0  0  0
   11.9064   -2.5462    2.5114 H   0  0  0  0  0  0  0  0  0  0  0  0
   11.0801   -2.8211    0.9687 H   0  0  0  0  0  0  0  0  0  0  0  0
   11.6817   -1.2048    1.3748 H   0  0  0  0  0  0  0  0  0  0  0  0
   14.3979   -2.6130    1.4440 C   0  0  0  0  0  0  0  0  0  0  0  0
   14.5840   -2.4198    2.7734 N   0  0  0  0  0  0  0  0  0  0  0  0
   13.8324   -1.9721    3.2969 H   0  0  0  0  0  0  0  0  0  0  0  0
   15.5432   -2.2614    3.0628 H   0  0  0  0  0  0  0  0  0  0  0  0
   15.3704   -2.9191    0.6508 N   0  0  0  0  0  4  0  0  0  0  0  0
   16.3059   -3.1440    0.9965 H   0  0  0  0  0  0  0  0  0  0  0  0
   14.3444   -5.5329   -1.7491 C   0  0  0  0  0  0  0  0  0  0  0  0
   13.4082   -5.1340   -2.1298 H   0  0  0  0  0  0  0  0  0  0  0  0
   14.6524   -6.8780   -1.9940 C   0  0  0  0  0  0  0  0  0  0  0  0
   13.9622   -7.5109   -2.5448 H   0  0  0  0  0  0  0  0  0  0  0  0
  1  2  1  0
  2  3  2  0
  3  4  1  0
  3  5  1  0
  5  6  1  0
  5  7  2  0
  7  8  1  0
  8  9  1  0
  9 10  2  0
 10 11  1  0
 10 12  1  0
 12 13  1  0
 12 14  2  0
 14 15  1  0
 14 16  1  0
 16 17  1  0
 17 18  2  0
 18 19  1  0
 18 20  1  0
 20 21  1  0
 20 22  2  0
 22 23  1  0
 22 24  1  0
 24 25  1  0
 25 26  1  0
 25 27  1  0
 25 28  1  0
 24 29  2  0
 29 30  1  0
 16 31  2  0
 31 32  1  0
  8 33  1  0
 33 34  2  0
 33 35  1  0
 35 36  1  0
 36 37  1  0
 36 38  1  0
 36 39  1  0
 35 40  1  0
 40 41  1  0
 41 42  1  0
 41 43  1  0
 40 44  2  0
 44 45  1  0
  7 46  1  0
 46 47  1  0
 46 48  2  0
 48 49  1  0
 48  2  1  0
 44  8  1  0
 31  9  1  0
 29 17  1  0
M  CHG  1  44   1
M  END
>  <score>  (255) 
5.48416

$$$$

     RDKit          3D

 55 58  0  0  0  0  0  0  0  0999 V2000
   16.2653   -8.3476   -1.7669 H   0  0  0  0  0  0  0  0  0  0  0  0
   15.9882   -7.3233   -1.5372 C   0  0  0  0  0  0  0  0  0  0  0  0
   16.8462   -6.5134   -0.7852 C   0  0  0  0  0  0  0  0  0  0  0  0
   17.7981   -6.9032   -0.4351 H   0  0  0  0  0  0  0  0  0  0  0  0
   16.4817   -5.1973   -0.4813 C   0  0  0  0  0  0  0  0  0  0  0  0
   17.1570   -4.5738    0.0967 H   0  0  0  0  0  0  0  0  0  0  0  0
   15.2524   -4.6761   -0.9152 C   0  0  0  0  0  0  0  0  0  0  0  0
   14.8385   -3.2468   -0.5980 C   0  0  0  0  0  0  0  0  0  0  0  0
   15.1979   -2.2789   -1.7172 C   0  0  0  0  0  0  0  0  0  0  0  0
   15.9108   -2.6695   -2.8646 C   0  0  0  0  0  0  0  0  0  0  0  0
   16.2639   -3.6917   -2.9551 H   0  0  0  0  0  0  0  0  0  0  0  0
   16.1861   -1.7523   -3.8884 C   0  0  0  0  0  0  0  0  0  0  0  0
   16.7472   -2.0607   -4.7654 H   0  0  0  0  0  0  0  0  0  0  0  0
   15.7527   -0.4257   -3.7802 C   0  0  0  0  0  0  0  0  0  0  0  0
   15.9728    0.2911   -4.5675 H   0  0  0  0  0  0  0  0  0  0  0  0
   15.0601   -0.0156   -2.6349 C   0  0  0  0  0  0  0  0  0  0  0  0
   14.7367    1.4346   -2.3928 C   0  0  0  0  0  0  0  0  0  0  0  0
   14.5256    1.9641   -3.3258 H   0  0  0  0  0  0  0  0  0  0  0  0
   13.8432    1.5119   -1.7622 H   0  0  0  0  0  0  0  0  0  0  0  0
   15.9427    2.0658   -1.6897 C   0  0  0  0  0  0  0  0  0  0  0  0
   16.5397    1.2879   -1.1930 H   0  0  0  0  0  0  0  0  0  0  0  0
   16.5808    2.5722   -2.4241 H   0  0  0  0  0  0  0  0  0  0  0  0
   15.5129    3.0223   -0.6696 N   0  0  0  0  0  0  0  0  0  0  0  0
   16.5763    3.3100    0.3065 C   0  0  0  0  0  0  0  0  0  0  0  0
   17.0563    2.3992    0.6781 H   0  0  0  0  0  0  0  0  0  0  0  0
   17.3497    3.9191   -0.1628 H   0  0  0  0  0  0  0  0  0  0  0  0
   15.9435    4.0631    1.4613 C   0  0  0  0  0  0  0  0  0  0  0  0
   16.6711    4.1977    2.2591 H   0  0  0  0  0  0  0  0  0  0  0  0
   15.1039    3.4703    1.8453 H   0  0  0  0  0  0  0  0  0  0  0  0
   15.5038    5.3408    0.9881 O   0  0  0  0  0  0  0  0  0  0  0  0
   14.4639    5.1961    0.0059 C   0  0  0  0  0  0  0  0  0  0  0  0
   14.2698    6.1828   -0.4111 H   0  0  0  0  0  0  0  0  0  0  0  0
   13.5563    4.8355    0.5019 H   0  0  0  0  0  0  0  0  0  0  0  0
   14.8046    4.2263   -1.1518 C   0  0  0  0  0  0  0  0  0  0  0  0
   13.8696    3.9191   -1.6377 H   0  0  0  0  0  0  0  0  0  0  0  0
   15.4292    4.7361   -1.8972 H   0  0  0  0  0  0  0  0  0  0  0  0
   14.7800   -0.9421   -1.6252 C   0  0  0  0  0  0  0  0  0  0  0  0
   14.2436   -0.6018   -0.7432 H   0  0  0  0  0  0  0  0  0  0  0  0
   13.3312   -3.1369   -0.2867 C   0  0  0  0  0  0  0  0  0  0  0  0
   12.3913   -3.4374   -1.0200 O   0  0  0  0  0  0  0  0  0  0  0  0
   13.1566   -2.5956    0.9687 N   0  0  0  0  0  0  0  0  0  0  0  0
   11.8981   -2.2138    1.6070 C   0  0  0  0  0  0  0  0  0  0  0  0
   11.0471   -2.4137    0.9474 H   0  0  0  0  0  0  0  0  0  0  0  0
   11.7503   -2.7753    2.5367 H   0  0  0  0  0  0  0  0  0  0  0  0
   11.9021   -1.1440    1.8451 H   0  0  0  0  0  0  0  0  0  0  0  0
   14.4044   -2.4060    1.5030 C   0  0  0  0  0  0  0  0  0  0  0  0
   14.5983   -1.9006    2.7489 N   0  0  0  0  0  0  0  0  0  0  0  0
   13.7873   -1.8730    3.3654 H   0  0  0  0  0  0  0  0  0  0  0  0
   15.5111   -2.0473    3.1655 H   0  0  0  0  0  0  0  0  0  0  0  0
   15.3568   -2.7719    0.7054 N   0  0  0  0  0  4  0  0  0  0  0  0
   16.3452   -2.7672    0.9606 H   0  0  0  0  0  0  0  0  0  0  0  0
   14.4078   -5.4940   -1.6845 C   0  0  0  0  0  0  0  0  0  0  0  0
   13.4621   -5.1016   -2.0482 H   0  0  0  0  0  0  0  0  0  0  0  0
   14.7685   -6.8096   -1.9909 C   0  0  0  0  0  0  0  0  0  0  0  0
   14.0999   -7.4292   -2.5811 H   0  0  0  0  0  0  0  0  0  0  0  0
  1  2  1  0
  2  3  2  0
  3  4  1  0
  3  5  1  0
  5  6  1  0
  5  7  2  0
  7  8  1  0
  8  9  1  0
  9 10  2  0
 10 11  1  0
 10 12  1  0
 12 13  1  0
 12 14  2  0
 14 15  1  0
 14 16  1  0
 16 17  1  0
 17 18  1  0
 17 19  1  0
 17 20  1  0
 20 21  1  0
 20 22  1  0
 20 23  1  0
 23 24  1  0
 24 25  1  0
 24 26  1  0
 24 27  1  0
 27 28  1  0
 27 29  1  0
 27 30  1  0
 30 31  1  0
 31 32  1  0
 31 33  1  0
 31 34  1  0
 34 35  1  0
 34 36  1  0
 16 37  2  0
 37 38  1  0
  8 39  1  0
 39 40  2  0
 39 41  1  0
 41 42  1  0
 42 43  1  0
 42 44  1  0
 42 45  1  0
 41 46  1  0
 46 47  1  0
 47 48  1  0
 47 49  1  0
 46 50  2  0
 50 51  1  0
  7 52  1  0
 52 53  1  0
 52 54  2  0
 54 55  1  0
 54  2  1  0
 50  8  1  0
 37  9  1  0
 34 23  1  0
M  CHG  1  50   1
M  END
>  <score>  (256) 
5.48385

$$$$

     RDKit          3D

 47 50  0  0  0  0  0  0  0  0999 V2000
   16.2005   -8.3955   -1.7235 H   0  0  0  0  0  0  0  0  0  0  0  0
   15.9355   -7.3628   -1.5184 C   0  0  0  0  0  0  0  0  0  0  0  0
   16.8054   -6.5419   -0.7943 C   0  0  0  0  0  0  0  0  0  0  0  0
   17.7504   -6.9341   -0.4334 H   0  0  0  0  0  0  0  0  0  0  0  0
   16.4554   -5.2151   -0.5185 C   0  0  0  0  0  0  0  0  0  0  0  0
   17.1357   -4.5876    0.0497 H   0  0  0  0  0  0  0  0  0  0  0  0
   15.2275   -4.6907   -0.9533 C   0  0  0  0  0  0  0  0  0  0  0  0
   14.8175   -3.2565   -0.6258 C   0  0  0  0  0  0  0  0  0  0  0  0
   15.2656   -2.2137   -1.6457 C   0  0  0  0  0  0  0  0  0  0  0  0
   16.0165   -2.5422   -2.7867 C   0  0  0  0  0  0  0  0  0  0  0  0
   16.3301   -3.5689   -2.9454 H   0  0  0  0  0  0  0  0  0  0  0  0
   16.3679   -1.5580   -3.7207 C   0  0  0  0  0  0  0  0  0  0  0  0
   16.9731   -1.8226   -4.5873 H   0  0  0  0  0  0  0  0  0  0  0  0
   15.9368   -0.2368   -3.5359 C   0  0  0  0  0  0  0  0  0  0  0  0
   16.1913    0.5299   -4.2597 H   0  0  0  0  0  0  0  0  0  0  0  0
   15.1611    0.1149   -2.4197 C   0  0  0  0  0  0  0  0  0  0  0  0
   14.6579    1.3781   -2.2178 O   0  0  0  0  0  0  0  0  0  0  0  0
   15.2853    2.4499   -2.9421 C   0  0  0  0  0  0  0  0  0  0  0  0
   15.1066    2.3491   -4.0170 H   0  0  0  0  0  0  0  0  0  0  0  0
   14.8287    3.3933   -2.6322 H   0  0  0  0  0  0  0  0  0  0  0  0
   16.7868    2.5121   -2.6311 C   0  0  0  0  0  0  0  0  0  0  0  0
   17.4197    1.7939   -3.1686 H   0  0  0  0  0  0  0  0  0  0  0  0
   17.1213    2.8588   -1.1830 C   0  0  0  0  0  0  0  0  0  0  0  0
   16.2899    3.0349   -0.4908 H   0  0  0  0  0  0  0  0  0  0  0  0
   18.0061    2.4278   -0.7201 H   0  0  0  0  0  0  0  0  0  0  0  0
   17.3658    3.8850   -2.2802 C   0  0  0  0  0  0  0  0  0  0  0  0
   18.4056    4.1390   -2.5285 H   0  0  0  0  0  0  0  0  0  0  0  0
   16.6690    4.7241   -2.3151 H   0  0  0  0  0  0  0  0  0  0  0  0
   14.8579   -0.8749   -1.4815 C   0  0  0  0  0  0  0  0  0  0  0  0
   14.2849   -0.5873   -0.6052 H   0  0  0  0  0  0  0  0  0  0  0  0
   13.2951   -3.1182   -0.4571 C   0  0  0  0  0  0  0  0  0  0  0  0
   12.4405   -3.3461   -1.3137 O   0  0  0  0  0  0  0  0  0  0  0  0
   13.0078   -2.6391    0.8029 N   0  0  0  0  0  0  0  0  0  0  0  0
   11.6860   -2.2593    1.3104 C   0  0  0  0  0  0  0  0  0  0  0  0
   10.9155   -2.3950    0.5404 H   0  0  0  0  0  0  0  0  0  0  0  0
   11.6796   -1.2054    1.6152 H   0  0  0  0  0  0  0  0  0  0  0  0
   11.4153   -2.8798    2.1719 H   0  0  0  0  0  0  0  0  0  0  0  0
   14.2077   -2.5330    1.4771 C   0  0  0  0  0  0  0  0  0  0  0  0
   14.3797   -2.1078    2.7619 N   0  0  0  0  0  0  0  0  0  0  0  0
   13.5658   -2.0009    3.3694 H   0  0  0  0  0  0  0  0  0  0  0  0
   15.3128   -2.1354    3.1688 H   0  0  0  0  0  0  0  0  0  0  0  0
   15.2204   -2.8761    0.7454 N   0  0  0  0  0  4  0  0  0  0  0  0
   16.1887   -2.8631    1.0718 H   0  0  0  0  0  0  0  0  0  0  0  0
   14.3706   -5.5228   -1.6967 C   0  0  0  0  0  0  0  0  0  0  0  0
   13.4189   -5.1414   -2.0545 H   0  0  0  0  0  0  0  0  0  0  0  0
   14.7192   -6.8484   -1.9739 C   0  0  0  0  0  0  0  0  0  0  0  0
   14.0374   -7.4790   -2.5351 H   0  0  0  0  0  0  0  0  0  0  0  0
  1  2  1  0
  2  3  2  0
  3  4  1  0
  3  5  1  0
  5  6  1  0
  5  7  2  0
  7  8  1  0
  8  9  1  0
  9 10  2  0
 10 11  1  0
 10 12  1  0
 12 13  1  0
 12 14  2  0
 14 15  1  0
 14 16  1  0
 16 17  1  0
 17 18  1  0
 18 19  1  0
 18 20  1  0
 18 21  1  0
 21 22  1  0
 21 23  1  0
 23 24  1  0
 23 25  1  0
 23 26  1  0
 26 27  1  0
 26 28  1  0
 16 29  2  0
 29 30  1  0
  8 31  1  0
 31 32  2  0
 31 33  1  0
 33 34  1  0
 34 35  1  0
 34 36  1  0
 34 37  1  0
 33 38  1  0
 38 39  1  0
 39 40  1  0
 39 41  1  0
 38 42  2  0
 42 43  1  0
  7 44  1  0
 44 45  1  0
 44 46  2  0
 46 47  1  0
 46  2  1  0
 42  8  1  0
 29  9  1  0
 26 21  1  0
M  CHG  1  42   1
M  END
>  <score>  (257) 
5.48376

$$$$

     RDKit          3D

 47 50  0  0  0  0  0  0  0  0999 V2000
   11.6010  -10.7964   -4.0358 H   0  0  0  0  0  0  0  0  0  0  0  0
   11.6275  -10.8741   -3.0597 O   0  0  0  0  0  0  0  0  0  0  0  0
   12.5780  -10.0151   -2.5755 C   0  0  0  0  0  0  0  0  0  0  0  0
   13.3300   -9.2675   -3.4741 C   0  0  0  0  0  0  0  0  0  0  0  0
   13.1649   -9.3758   -4.5348 H   0  0  0  0  0  0  0  0  0  0  0  0
   14.2515   -8.3167   -3.0259 C   0  0  0  0  0  0  0  0  0  0  0  0
   14.7739   -7.6866   -3.7444 H   0  0  0  0  0  0  0  0  0  0  0  0
   14.4845   -8.1573   -1.6577 C   0  0  0  0  0  0  0  0  0  0  0  0
   15.3423   -7.0636   -1.2199 C   0  0  0  0  0  0  0  0  0  0  0  0
   16.6695   -7.2834   -0.8272 C   0  0  0  0  0  0  0  0  0  0  0  0
   17.0812   -8.2874   -0.8465 H   0  0  0  0  0  0  0  0  0  0  0  0
   17.4735   -6.2057   -0.4416 C   0  0  0  0  0  0  0  0  0  0  0  0
   18.5060   -6.3648   -0.1406 H   0  0  0  0  0  0  0  0  0  0  0  0
   16.9396   -4.9156   -0.4182 C   0  0  0  0  0  0  0  0  0  0  0  0
   17.5636   -4.0855   -0.0974 H   0  0  0  0  0  0  0  0  0  0  0  0
   15.5964   -4.6873   -0.7562 C   0  0  0  0  0  0  0  0  0  0  0  0
   14.9985   -3.3048   -0.5975 C   0  0  0  0  0  0  0  0  0  0  0  0
   15.4487   -2.3315   -1.6709 C   0  0  0  0  0  0  0  0  0  0  0  0
   15.9478   -2.7569   -2.9148 C   0  0  0  0  0  0  0  0  0  0  0  0
   16.0062   -3.8186   -3.1397 H   0  0  0  0  0  0  0  0  0  0  0  0
   16.3867   -1.8183   -3.8566 C   0  0  0  0  0  0  0  0  0  0  0  0
   16.7864   -2.1508   -4.8076 H   0  0  0  0  0  0  0  0  0  0  0  0
   16.3191   -0.4511   -3.5710 C   0  0  0  0  0  0  0  0  0  0  0  0
   16.6785    0.2725   -4.2964 H   0  0  0  0  0  0  0  0  0  0  0  0
   15.7804   -0.0209   -2.3557 C   0  0  0  0  0  0  0  0  0  0  0  0
   15.7089    1.0376   -2.1297 H   0  0  0  0  0  0  0  0  0  0  0  0
   15.3395   -0.9561   -1.4192 C   0  0  0  0  0  0  0  0  0  0  0  0
   14.9249   -0.6167   -0.4730 H   0  0  0  0  0  0  0  0  0  0  0  0
   13.4627   -3.2710   -0.4433 C   0  0  0  0  0  0  0  0  0  0  0  0
   12.6257   -3.6014   -1.2778 O   0  0  0  0  0  0  0  0  0  0  0  0
   13.1385   -2.7624    0.8041 N   0  0  0  0  0  0  0  0  0  0  0  0
   11.8153   -2.3568    1.2843 C   0  0  0  0  0  0  0  0  0  0  0  0
   11.8071   -1.2862    1.5249 H   0  0  0  0  0  0  0  0  0  0  0  0
   11.5447   -2.9157    2.1879 H   0  0  0  0  0  0  0  0  0  0  0  0
   11.0436   -2.5361    0.5271 H   0  0  0  0  0  0  0  0  0  0  0  0
   14.3238   -2.5362    1.4625 C   0  0  0  0  0  0  0  0  0  0  0  0
   14.4720   -2.0918    2.7397 N   0  0  0  0  0  0  0  0  0  0  0  0
   15.3928   -2.2007    3.1614 H   0  0  0  0  0  0  0  0  0  0  0  0
   13.6515   -2.0937    3.3430 H   0  0  0  0  0  0  0  0  0  0  0  0
   15.3589   -2.8156    0.7450 N   0  0  0  0  0  4  0  0  0  0  0  0
   16.3118   -2.8155    1.1067 H   0  0  0  0  0  0  0  0  0  0  0  0
   14.8185   -5.7606   -1.2066 C   0  0  0  0  0  0  0  0  0  0  0  0
   13.8007   -5.5732   -1.5445 H   0  0  0  0  0  0  0  0  0  0  0  0
   13.7586   -8.9400   -0.7386 C   0  0  0  0  0  0  0  0  0  0  0  0
   13.8831   -8.8203    0.3362 H   0  0  0  0  0  0  0  0  0  0  0  0
   12.7931   -9.8450   -1.2081 C   0  0  0  0  0  0  0  0  0  0  0  0
   12.1771  -10.4043   -0.5169 H   0  0  0  0  0  0  0  0  0  0  0  0
  1  2  1  0
  2  3  1  0
  3  4  2  0
  4  5  1  0
  4  6  1  0
  6  7  1  0
  6  8  2  0
  8  9  1  0
  9 10  2  0
 10 11  1  0
 10 12  1  0
 12 13  1  0
 12 14  2  0
 14 15  1  0
 14 16  1  0
 16 17  1  0
 17 18  1  0
 18 19  2  0
 19 20  1  0
 19 21  1  0
 21 22  1  0
 21 23  2  0
 23 24  1  0
 23 25  1  0
 25 26  1  0
 25 27  2  0
 27 28  1  0
 17 29  1  0
 29 30  2  0
 29 31  1  0
 31 32  1  0
 32 33  1  0
 32 34  1  0
 32 35  1  0
 31 36  1  0
 36 37  1  0
 37 38  1  0
 37 39  1  0
 36 40  2  0
 40 41  1  0
 16 42  2  0
 42 43  1  0
  8 44  1  0
 44 45  1  0
 44 46  2  0
 46 47  1  0
 46  3  1  0
 42  9  1  0
 40 17  1  0
 27 18  1  0
M  CHG  1  40   1
M  END
>  <score>  (258) 
5.48035

$$$$

     RDKit          3D

 49 52  0  0  0  0  0  0  0  0999 V2000
   11.3680  -10.3399    1.1764 H   0  0  0  0  0  0  0  0  0  0  0  0
   12.2635  -10.4588    0.5760 C   0  0  0  0  0  0  0  0  0  0  0  0
   13.1552  -11.4010    0.9275 N   0  0  0  0  0  0  0  0  0  0  0  0
   14.2698  -11.5189    0.1916 C   0  0  0  0  0  0  0  0  0  0  0  0
   15.0017  -12.2693    0.4794 H   0  0  0  0  0  0  0  0  0  0  0  0
   14.5030  -10.7358   -0.9468 C   0  0  0  0  0  0  0  0  0  0  0  0
   15.4202  -10.8908   -1.5037 H   0  0  0  0  0  0  0  0  0  0  0  0
   13.5653   -9.7747   -1.3458 C   0  0  0  0  0  0  0  0  0  0  0  0
   13.7850   -8.9354   -2.5791 C   0  0  0  0  0  0  0  0  0  0  0  0
   13.1851   -9.3399   -3.4030 H   0  0  0  0  0  0  0  0  0  0  0  0
   14.8347   -9.0114   -2.8426 H   0  0  0  0  0  0  0  0  0  0  0  0
   13.4840   -7.5478   -2.3713 O   0  0  0  0  0  0  0  0  0  0  0  0
   14.4805   -6.8052   -1.7853 C   0  0  0  0  0  0  0  0  0  0  0  0
   15.7122   -7.3416   -1.3776 C   0  0  0  0  0  0  0  0  0  0  0  0
   15.9125   -8.3970   -1.5253 H   0  0  0  0  0  0  0  0  0  0  0  0
   16.6801   -6.5236   -0.7891 C   0  0  0  0  0  0  0  0  0  0  0  0
   17.6375   -6.9383   -0.4883 H   0  0  0  0  0  0  0  0  0  0  0  0
   16.4092   -5.1695   -0.5775 C   0  0  0  0  0  0  0  0  0  0  0  0
   17.1581   -4.5436   -0.0994 H   0  0  0  0  0  0  0  0  0  0  0  0
   15.1739   -4.6193   -0.9531 C   0  0  0  0  0  0  0  0  0  0  0  0
   14.8296   -3.1688   -0.6630 C   0  0  0  0  0  0  0  0  0  0  0  0
   15.4190   -2.1938   -1.6759 C   0  0  0  0  0  0  0  0  0  0  0  0
   15.9477   -2.6431   -2.9002 C   0  0  0  0  0  0  0  0  0  0  0  0
   15.9896   -3.7094   -3.1093 H   0  0  0  0  0  0  0  0  0  0  0  0
   16.4132   -1.7283   -3.8514 C   0  0  0  0  0  0  0  0  0  0  0  0
   16.8226   -2.0833   -4.7908 H   0  0  0  0  0  0  0  0  0  0  0  0
   16.3515   -0.3552   -3.5939 C   0  0  0  0  0  0  0  0  0  0  0  0
   16.7146    0.3511   -4.3345 H   0  0  0  0  0  0  0  0  0  0  0  0
   15.8262    0.1054   -2.3831 C   0  0  0  0  0  0  0  0  0  0  0  0
   15.7777    1.1709   -2.1762 H   0  0  0  0  0  0  0  0  0  0  0  0
   15.3614   -0.8101   -1.4330 C   0  0  0  0  0  0  0  0  0  0  0  0
   14.9460   -0.4451   -0.4973 H   0  0  0  0  0  0  0  0  0  0  0  0
   13.3061   -2.9765   -0.5414 C   0  0  0  0  0  0  0  0  0  0  0  0
   12.4763   -3.0737   -1.4445 O   0  0  0  0  0  0  0  0  0  0  0  0
   12.9619   -2.7103    0.7706 N   0  0  0  0  0  0  0  0  0  0  0  0
   11.6229   -2.3416    1.2400 C   0  0  0  0  0  0  0  0  0  0  0  0
   11.2993   -2.9611    2.0904 H   0  0  0  0  0  0  0  0  0  0  0  0
   10.8942   -2.4776    0.4275 H   0  0  0  0  0  0  0  0  0  0  0  0
   11.6067   -1.2846    1.5398 H   0  0  0  0  0  0  0  0  0  0  0  0
   14.1479   -2.6481    1.4803 C   0  0  0  0  0  0  0  0  0  0  0  0
   14.2996   -2.4402    2.8175 N   0  0  0  0  0  0  0  0  0  0  0  0
   13.4940   -2.1331    3.3493 H   0  0  0  0  0  0  0  0  0  0  0  0
   15.2318   -2.2456    3.1707 H   0  0  0  0  0  0  0  0  0  0  0  0
   15.1863   -2.8540    0.7361 N   0  0  0  0  0  4  0  0  0  0  0  0
   16.1262   -2.9774    1.1123 H   0  0  0  0  0  0  0  0  0  0  0  0
   14.2326   -5.4516   -1.5812 C   0  0  0  0  0  0  0  0  0  0  0  0
   13.2739   -5.0643   -1.9080 H   0  0  0  0  0  0  0  0  0  0  0  0
   12.4313   -9.6365   -0.5451 C   0  0  0  0  0  0  0  0  0  0  0  0
   11.6754   -8.8932   -0.7808 H   0  0  0  0  0  0  0  0  0  0  0  0
  1  2  1  0
  2  3  2  0
  3  4  1  0
  4  5  1  0
  4  6  2  0
  6  7  1  0
  6  8  1  0
  8  9  1  0
  9 10  1  0
  9 11  1  0
  9 12  1  0
 12 13  1  0
 13 14  2  0
 14 15  1  0
 14 16  1  0
 16 17  1  0
 16 18  2  0
 18 19  1  0
 18 20  1  0
 20 21  1  0
 21 22  1  0
 22 23  2  0
 23 24  1  0
 23 25  1  0
 25 26  1  0
 25 27  2  0
 27 28  1  0
 27 29  1  0
 29 30  1  0
 29 31  2  0
 31 32  1  0
 21 33  1  0
 33 34  2  0
 33 35  1  0
 35 36  1  0
 36 37  1  0
 36 38  1  0
 36 39  1  0
 35 40  1  0
 40 41  1  0
 41 42  1  0
 41 43  1  0
 40 44  2  0
 44 45  1  0
 20 46  2  0
 46 47  1  0
  8 48  2  0
 48 49  1  0
 48  2  1  0
 46 13  1  0
 44 21  1  0
 31 22  1  0
M  CHG  1  44   1
M  END
>  <score>  (259) 
5.47814

$$$$

     RDKit          3D

 53 56  0  0  0  0  0  0  0  0999 V2000
   10.8371  -12.1791    0.6926 H   0  0  0  0  0  0  0  0  0  0  0  0
   11.3146  -11.7393   -0.1740 C   0  0  0  0  0  0  0  0  0  0  0  0
   12.6948  -11.5336   -0.1656 C   0  0  0  0  0  0  0  0  0  0  0  0
   13.2940  -11.8315    0.6953 H   0  0  0  0  0  0  0  0  0  0  0  0
   13.3040  -10.9417   -1.2695 C   0  0  0  0  0  0  0  0  0  0  0  0
   14.3690  -10.7391   -1.2544 H   0  0  0  0  0  0  0  0  0  0  0  0
   12.5440  -10.5292   -2.3711 C   0  0  0  0  0  0  0  0  0  0  0  0
   13.1882   -9.8029   -3.5125 C   0  0  0  0  0  0  0  0  0  0  0  0
   13.6912  -10.5121   -4.1778 H   0  0  0  0  0  0  0  0  0  0  0  0
   12.4348   -9.2856   -4.0977 H   0  0  0  0  0  0  0  0  0  0  0  0
   14.1012   -8.8067   -2.9916 N   0  0  0  0  0  0  0  0  0  0  0  0
   15.1034   -8.9702   -3.0547 H   0  0  0  0  0  0  0  0  0  0  0  0
   13.6684   -7.7225   -2.2643 C   0  0  0  0  0  0  0  0  0  0  0  0
   12.4666   -7.5293   -2.0876 O   0  0  0  0  0  0  0  0  0  0  0  0
   14.6705   -6.8291   -1.7008 C   0  0  0  0  0  0  0  0  0  0  0  0
   15.9424   -7.3036   -1.3254 C   0  0  0  0  0  0  0  0  0  0  0  0
   16.2162   -8.3477   -1.4545 H   0  0  0  0  0  0  0  0  0  0  0  0
   16.8737   -6.4354   -0.7518 C   0  0  0  0  0  0  0  0  0  0  0  0
   17.8485   -6.7994   -0.4393 H   0  0  0  0  0  0  0  0  0  0  0  0
   16.5423   -5.0935   -0.5516 C   0  0  0  0  0  0  0  0  0  0  0  0
   17.2530   -4.4240   -0.0754 H   0  0  0  0  0  0  0  0  0  0  0  0
   15.2852   -4.6045   -0.9363 C   0  0  0  0  0  0  0  0  0  0  0  0
   14.8858   -3.1663   -0.6840 C   0  0  0  0  0  0  0  0  0  0  0  0
   15.4235   -2.1988   -1.7254 C   0  0  0  0  0  0  0  0  0  0  0  0
   15.9463   -2.6322   -2.9583 C   0  0  0  0  0  0  0  0  0  0  0  0
   15.9896   -3.6938   -3.1866 H   0  0  0  0  0  0  0  0  0  0  0  0
   16.4148   -1.7038   -3.8974 C   0  0  0  0  0  0  0  0  0  0  0  0
   16.8253   -2.0409   -4.8434 H   0  0  0  0  0  0  0  0  0  0  0  0
   16.3559   -0.3348   -3.6193 C   0  0  0  0  0  0  0  0  0  0  0  0
   16.7274    0.3848   -4.3430 H   0  0  0  0  0  0  0  0  0  0  0  0
   15.8129    0.1061   -2.4097 C   0  0  0  0  0  0  0  0  0  0  0  0
   15.7529    1.1669   -2.1883 H   0  0  0  0  0  0  0  0  0  0  0  0
   15.3443   -0.8206   -1.4757 C   0  0  0  0  0  0  0  0  0  0  0  0
   14.9156   -0.4722   -0.5401 H   0  0  0  0  0  0  0  0  0  0  0  0
   13.3597   -2.9909   -0.5296 C   0  0  0  0  0  0  0  0  0  0  0  0
   12.5006   -3.1511   -1.3936 O   0  0  0  0  0  0  0  0  0  0  0  0
   13.0728   -2.6208    0.7682 N   0  0  0  0  0  0  0  0  0  0  0  0
   11.7536   -2.2966    1.3101 C   0  0  0  0  0  0  0  0  0  0  0  0
   10.9684   -2.4832    0.5675 H   0  0  0  0  0  0  0  0  0  0  0  0
   11.7099   -1.2395    1.5938 H   0  0  0  0  0  0  0  0  0  0  0  0
   11.5351   -2.9066    2.1941 H   0  0  0  0  0  0  0  0  0  0  0  0
   14.2732   -2.5396    1.4385 C   0  0  0  0  0  0  0  0  0  0  0  0
   14.4441   -2.2380    2.7518 N   0  0  0  0  0  0  0  0  0  0  0  0
   13.6292   -2.1103    3.3495 H   0  0  0  0  0  0  0  0  0  0  0  0
   15.3816   -2.2724    3.1504 H   0  0  0  0  0  0  0  0  0  0  0  0
   15.2905   -2.8007    0.6850 N   0  0  0  0  0  4  0  0  0  0  0  0
   16.2417   -2.9062    1.0396 H   0  0  0  0  0  0  0  0  0  0  0  0
   14.3679   -5.4767   -1.5255 C   0  0  0  0  0  0  0  0  0  0  0  0
   13.3977   -5.0990   -1.8407 H   0  0  0  0  0  0  0  0  0  0  0  0
   11.1606  -10.7613   -2.3804 C   0  0  0  0  0  0  0  0  0  0  0  0
   10.5618  -10.4513   -3.2338 H   0  0  0  0  0  0  0  0  0  0  0  0
   10.5496  -11.3945   -1.2937 C   0  0  0  0  0  0  0  0  0  0  0  0
    9.4851  -11.6084   -1.3173 H   0  0  0  0  0  0  0  0  0  0  0  0
  1  2  1  0
  2  3  2  0
  3  4  1  0
  3  5  1  0
  5  6  1  0
  5  7  2  0
  7  8  1  0
  8  9  1  0
  8 10  1  0
  8 11  1  0
 11 12  1  0
 11 13  1  0
 13 14  2  0
 13 15  1  0
 15 16  2  0
 16 17  1  0
 16 18  1  0
 18 19  1  0
 18 20  2  0
 20 21  1  0
 20 22  1  0
 22 23  1  0
 23 24  1  0
 24 25  2  0
 25 26  1  0
 25 27  1  0
 27 28  1  0
 27 29  2  0
 29 30  1  0
 29 31  1  0
 31 32  1  0
 31 33  2  0
 33 34  1  0
 23 35  1  0
 35 36  2  0
 35 37  1  0
 37 38  1  0
 38 39  1  0
 38 40  1  0
 38 41  1  0
 37 42  1  0
 42 43  1  0
 43 44  1  0
 43 45  1  0
 42 46  2  0
 46 47  1  0
 22 48  2  0
 48 49  1  0
  7 50  1  0
 50 51  1  0
 50 52  2  0
 52 53  1  0
 52  2  1  0
 48 15  1  0
 46 23  1  0
 33 24  1  0
M  CHG  1  46   1
M  END
>  <score>  (260) 
5.47715

$$$$

     RDKit          3D

 41 43  0  0  0  0  0  0  0  0999 V2000
   16.1096   -8.4709   -1.6139 H   0  0  0  0  0  0  0  0  0  0  0  0
   15.8587   -7.4229   -1.4794 C   0  0  0  0  0  0  0  0  0  0  0  0
   16.7364   -6.5731   -0.8019 C   0  0  0  0  0  0  0  0  0  0  0  0
   17.6747   -6.9576   -0.4132 H   0  0  0  0  0  0  0  0  0  0  0  0
   16.3985   -5.2295   -0.6059 C   0  0  0  0  0  0  0  0  0  0  0  0
   17.0769   -4.5795   -0.0605 H   0  0  0  0  0  0  0  0  0  0  0  0
   15.1808   -4.7077   -1.0717 C   0  0  0  0  0  0  0  0  0  0  0  0
   14.8181   -3.2483   -0.7771 C   0  0  0  0  0  0  0  0  0  0  0  0
   15.4108   -2.2456   -1.7716 C   0  0  0  0  0  0  0  0  0  0  0  0
   15.9572   -2.6504   -3.0002 C   0  0  0  0  0  0  0  0  0  0  0  0
   15.9886   -3.7075   -3.2514 H   0  0  0  0  0  0  0  0  0  0  0  0
   16.4396   -1.6992   -3.9067 C   0  0  0  0  0  0  0  0  0  0  0  0
   16.8409   -2.0123   -4.8643 H   0  0  0  0  0  0  0  0  0  0  0  0
   16.3796   -0.3377   -3.6109 C   0  0  0  0  0  0  0  0  0  0  0  0
   16.7461    0.3521   -4.3707 H   0  0  0  0  0  0  0  0  0  0  0  0
   15.8343    0.0924   -2.3881 C   0  0  0  0  0  0  0  0  0  0  0  0
   15.6671    1.8646   -2.0197 S   0  0  0  0  0  0  0  0  0  0  0  0
   14.5847    2.2284   -1.1068 O   0  0  0  0  0  0  0  0  0  0  0  0
   15.7561    2.7224   -3.2027 O   0  0  0  0  0  0  0  0  0  0  0  0
   17.0552    2.2579   -1.2282 N   0  0  0  0  0  0  0  0  0  0  0  0
   17.8016    2.0860   -1.8790 H   0  0  0  0  0  0  0  0  0  0  0  0
   16.9594    3.2457   -1.0536 H   0  0  0  0  0  0  0  0  0  0  0  0
   15.3542   -0.8723   -1.4807 C   0  0  0  0  0  0  0  0  0  0  0  0
   14.8990   -0.5907   -0.5319 H   0  0  0  0  0  0  0  0  0  0  0  0
   13.2940   -3.0423   -0.5978 C   0  0  0  0  0  0  0  0  0  0  0  0
   12.4276   -3.1199   -1.4687 O   0  0  0  0  0  0  0  0  0  0  0  0
   13.0217   -2.6827    0.7092 N   0  0  0  0  0  0  0  0  0  0  0  0
   11.7195   -2.3138    1.2722 C   0  0  0  0  0  0  0  0  0  0  0  0
   11.4995   -2.9201    2.1600 H   0  0  0  0  0  0  0  0  0  0  0  0
   10.9164   -2.4757    0.5424 H   0  0  0  0  0  0  0  0  0  0  0  0
   11.7083   -1.2547    1.5594 H   0  0  0  0  0  0  0  0  0  0  0  0
   14.2321   -2.6244    1.3644 C   0  0  0  0  0  0  0  0  0  0  0  0
   14.4040   -2.3160    2.6814 N   0  0  0  0  0  0  0  0  0  0  0  0
   13.5916   -2.1234    3.2646 H   0  0  0  0  0  0  0  0  0  0  0  0
   15.3395   -2.3395    3.0833 H   0  0  0  0  0  0  0  0  0  0  0  0
   15.2361   -2.9051    0.6004 N   0  0  0  0  0  4  0  0  0  0  0  0
   16.2066   -2.9369    0.9229 H   0  0  0  0  0  0  0  0  0  0  0  0
   14.3109   -5.5736   -1.7679 C   0  0  0  0  0  0  0  0  0  0  0  0
   13.3587   -5.2046   -2.1377 H   0  0  0  0  0  0  0  0  0  0  0  0
   14.6473   -6.9231   -1.9668 C   0  0  0  0  0  0  0  0  0  0  0  0
   13.9637   -7.5888   -2.4871 H   0  0  0  0  0  0  0  0  0  0  0  0
  1  2  1  0
  2  3  2  0
  3  4  1  0
  3  5  1  0
  5  6  1  0
  5  7  2  0
  7  8  1  0
  8  9  1  0
  9 10  2  0
 10 11  1  0
 10 12  1  0
 12 13  1  0
 12 14  2  0
 14 15  1  0
 14 16  1  0
 16 17  1  0
 17 18  2  0
 17 19  2  0
 17 20  1  0
 20 21  1  0
 20 22  1  0
 16 23  2  0
 23 24  1  0
  8 25  1  0
 25 26  2  0
 25 27  1  0
 27 28  1  0
 28 29  1  0
 28 30  1  0
 28 31  1  0
 27 32  1  0
 32 33  1  0
 33 34  1  0
 33 35  1  0
 32 36  2  0
 36 37  1  0
  7 38  1  0
 38 39  1  0
 38 40  2  0
 40 41  1  0
 40  2  1  0
 36  8  1  0
 23  9  1  0
M  CHG  1  36   1
M  END
>  <score>  (261) 
5.47658

$$$$

     RDKit          3D

 50 53  0  0  0  0  0  0  0  0999 V2000
   16.1092   -8.3997   -1.6946 H   0  0  0  0  0  0  0  0  0  0  0  0
   15.8774   -7.3540   -1.5158 C   0  0  0  0  0  0  0  0  0  0  0  0
   16.7743   -6.5405   -0.8167 C   0  0  0  0  0  0  0  0  0  0  0  0
   17.7173   -6.9482   -0.4678 H   0  0  0  0  0  0  0  0  0  0  0  0
   16.4560   -5.2017   -0.5588 C   0  0  0  0  0  0  0  0  0  0  0  0
   17.1603   -4.5747   -0.0177 H   0  0  0  0  0  0  0  0  0  0  0  0
   15.2312   -4.6602   -0.9856 C   0  0  0  0  0  0  0  0  0  0  0  0
   14.8547   -3.2102   -0.6736 C   0  0  0  0  0  0  0  0  0  0  0  0
   15.3650   -2.2121   -1.7120 C   0  0  0  0  0  0  0  0  0  0  0  0
   15.9147   -2.6801   -2.9133 C   0  0  0  0  0  0  0  0  0  0  0  0
   15.9725   -3.7484   -3.0986 H   0  0  0  0  0  0  0  0  0  0  0  0
   16.4066   -1.7942   -3.8677 C   0  0  0  0  0  0  0  0  0  0  0  0
   16.8406   -2.1615   -4.7894 H   0  0  0  0  0  0  0  0  0  0  0  0
   16.3686   -0.4237   -3.6394 C   0  0  0  0  0  0  0  0  0  0  0  0
   16.7753    0.2440   -4.3961 H   0  0  0  0  0  0  0  0  0  0  0  0
   15.8139    0.1041   -2.4583 C   0  0  0  0  0  0  0  0  0  0  0  0
   15.8273    1.5850   -2.2903 C   0  0  0  0  0  0  0  0  0  0  0  0
   16.5211    2.2830   -3.0227 O   0  0  0  0  0  0  0  0  0  0  0  0
   15.0790    2.2565   -1.3396 N   0  0  0  0  0  0  0  0  0  0  0  0
   14.5481    1.6958   -0.6791 H   0  0  0  0  0  0  0  0  0  0  0  0
   15.1586    3.7025   -1.1212 C   0  0  0  0  0  0  0  0  0  0  0  0
   14.8780    4.2530   -2.0334 H   0  0  0  0  0  0  0  0  0  0  0  0
   16.1724    4.0077   -0.8063 H   0  0  0  0  0  0  0  0  0  0  0  0
   14.1698    4.0263   -0.0104 C   0  0  0  0  0  0  0  0  0  0  0  0
   13.1215    3.8882   -0.2986 H   0  0  0  0  0  0  0  0  0  0  0  0
   14.6153    3.7436    1.4254 C   0  0  0  0  0  0  0  0  0  0  0  0
   13.8738    3.4400    2.1686 H   0  0  0  0  0  0  0  0  0  0  0  0
   15.6241    3.3275    1.5580 H   0  0  0  0  0  0  0  0  0  0  0  0
   14.4846    5.1767    0.9365 C   0  0  0  0  0  0  0  0  0  0  0  0
   13.6706    5.7553    1.3739 H   0  0  0  0  0  0  0  0  0  0  0  0
   15.4078    5.7275    0.7709 H   0  0  0  0  0  0  0  0  0  0  0  0
   15.2872   -0.8121   -1.5065 C   0  0  0  0  0  0  0  0  0  0  0  0
   14.8302   -0.4584   -0.5834 H   0  0  0  0  0  0  0  0  0  0  0  0
   13.3373   -3.0419   -0.4771 C   0  0  0  0  0  0  0  0  0  0  0  0
   12.4512   -3.2673   -1.3007 O   0  0  0  0  0  0  0  0  0  0  0  0
   13.0790   -2.6191    0.8087 N   0  0  0  0  0  0  0  0  0  0  0  0
   11.7667   -2.2815    1.3605 C   0  0  0  0  0  0  0  0  0  0  0  0
   11.5506   -2.8832    2.2504 H   0  0  0  0  0  0  0  0  0  0  0  0
   11.7262   -1.2212    1.6344 H   0  0  0  0  0  0  0  0  0  0  0  0
   10.9781   -2.4738    0.6229 H   0  0  0  0  0  0  0  0  0  0  0  0
   14.2951   -2.5192    1.4487 C   0  0  0  0  0  0  0  0  0  0  0  0
   14.4854   -2.1484    2.7477 N   0  0  0  0  0  0  0  0  0  0  0  0
   15.4138   -2.2650    3.1478 H   0  0  0  0  0  0  0  0  0  0  0  0
   13.6784   -2.1090    3.3646 H   0  0  0  0  0  0  0  0  0  0  0  0
   15.2907   -2.8348    0.6895 N   0  0  0  0  0  4  0  0  0  0  0  0
   16.2557   -2.9065    1.0198 H   0  0  0  0  0  0  0  0  0  0  0  0
   14.3536   -5.4809   -1.7181 C   0  0  0  0  0  0  0  0  0  0  0  0
   13.4136   -5.0759   -2.0820 H   0  0  0  0  0  0  0  0  0  0  0  0
   14.6708   -6.8193   -1.9738 C   0  0  0  0  0  0  0  0  0  0  0  0
   13.9728   -7.4418   -2.5232 H   0  0  0  0  0  0  0  0  0  0  0  0
  1  2  1  0
  2  3  2  0
  3  4  1  0
  3  5  1  0
  5  6  1  0
  5  7  2  0
  7  8  1  0
  8  9  1  0
  9 10  2  0
 10 11  1  0
 10 12  1  0
 12 13  1  0
 12 14  2  0
 14 15  1  0
 14 16  1  0
 16 17  1  0
 17 18  2  0
 17 19  1  0
 19 20  1  0
 19 21  1  0
 21 22  1  0
 21 23  1  0
 21 24  1  0
 24 25  1  0
 24 26  1  0
 26 27  1  0
 26 28  1  0
 26 29  1  0
 29 30  1  0
 29 31  1  0
 16 32  2  0
 32 33  1  0
  8 34  1  0
 34 35  2  0
 34 36  1  0
 36 37  1  0
 37 38  1  0
 37 39  1  0
 37 40  1  0
 36 41  1  0
 41 42  1  0
 42 43  1  0
 42 44  1  0
 41 45  2  0
 45 46  1  0
  7 47  1  0
 47 48  1  0
 47 49  2  0
 49 50  1  0
 49  2  1  0
 45  8  1  0
 32  9  1  0
 29 24  1  0
M  CHG  1  45   1
M  END
>  <score>  (262) 
5.47542

$$$$

     RDKit          3D

 36 38  0  0  0  0  0  0  0  0999 V2000
   16.1249   -8.4891   -1.6109 H   0  0  0  0  0  0  0  0  0  0  0  0
   15.8534   -7.4448   -1.4706 C   0  0  0  0  0  0  0  0  0  0  0  0
   16.7270   -6.5862   -0.8001 C   0  0  0  0  0  0  0  0  0  0  0  0
   17.6745   -6.9554   -0.4186 H   0  0  0  0  0  0  0  0  0  0  0  0
   16.3874   -5.2419   -0.6103 C   0  0  0  0  0  0  0  0  0  0  0  0
   17.0679   -4.5928   -0.0674 H   0  0  0  0  0  0  0  0  0  0  0  0
   15.1685   -4.7197   -1.0731 C   0  0  0  0  0  0  0  0  0  0  0  0
   14.8113   -3.2535   -0.7838 C   0  0  0  0  0  0  0  0  0  0  0  0
   15.3871   -2.2486   -1.7813 C   0  0  0  0  0  0  0  0  0  0  0  0
   15.9423   -2.6409   -3.0104 C   0  0  0  0  0  0  0  0  0  0  0  0
   16.0048   -3.6922   -3.2643 H   0  0  0  0  0  0  0  0  0  0  0  0
   16.4226   -1.6912   -3.9227 C   0  0  0  0  0  0  0  0  0  0  0  0
   16.8585   -2.0055   -4.8649 H   0  0  0  0  0  0  0  0  0  0  0  0
   16.3468   -0.3292   -3.6264 C   0  0  0  0  0  0  0  0  0  0  0  0
   16.7040    0.4121   -4.3371 H   0  0  0  0  0  0  0  0  0  0  0  0
   15.7951    0.0834   -2.4133 C   0  0  0  0  0  0  0  0  0  0  0  0
   15.6970    1.7812   -2.0382 Cl  0  0  0  0  0  0  0  0  0  0  0  0
   15.3196   -0.8696   -1.5051 C   0  0  0  0  0  0  0  0  0  0  0  0
   14.8990   -0.5220   -0.5666 H   0  0  0  0  0  0  0  0  0  0  0  0
   13.2975   -3.0239   -0.6069 C   0  0  0  0  0  0  0  0  0  0  0  0
   12.4283   -3.0828   -1.4740 O   0  0  0  0  0  0  0  0  0  0  0  0
   13.0223   -2.6721    0.7010 N   0  0  0  0  0  0  0  0  0  0  0  0
   11.7205   -2.3134    1.2617 C   0  0  0  0  0  0  0  0  0  0  0  0
   11.5014   -2.9180    2.1445 H   0  0  0  0  0  0  0  0  0  0  0  0
   10.9140   -2.4739    0.5405 H   0  0  0  0  0  0  0  0  0  0  0  0
   11.6930   -1.2622    1.5600 H   0  0  0  0  0  0  0  0  0  0  0  0
   14.2235   -2.6302    1.3663 C   0  0  0  0  0  0  0  0  0  0  0  0
   14.3933   -2.3362    2.6877 N   0  0  0  0  0  0  0  0  0  0  0  0
   13.5805   -2.1268    3.2644 H   0  0  0  0  0  0  0  0  0  0  0  0
   15.3281   -2.3562    3.0945 H   0  0  0  0  0  0  0  0  0  0  0  0
   15.2185   -2.9060    0.5920 N   0  0  0  0  0  4  0  0  0  0  0  0
   16.1886   -2.9028    0.9012 H   0  0  0  0  0  0  0  0  0  0  0  0
   14.3009   -5.5934   -1.7677 C   0  0  0  0  0  0  0  0  0  0  0  0
   13.3524   -5.2425   -2.1649 H   0  0  0  0  0  0  0  0  0  0  0  0
   14.6427   -6.9449   -1.9610 C   0  0  0  0  0  0  0  0  0  0  0  0
   13.9732   -7.6191   -2.4885 H   0  0  0  0  0  0  0  0  0  0  0  0
  1  2  1  0
  2  3  2  0
  3  4  1  0
  3  5  1  0
  5  6  1  0
  5  7  2  0
  7  8  1  0
  8  9  1  0
  9 10  2  0
 10 11  1  0
 10 12  1  0
 12 13  1  0
 12 14  2  0
 14 15  1  0
 14 16  1  0
 16 17  1  0
 16 18  2  0
 18 19  1  0
  8 20  1  0
 20 21  2  0
 20 22  1  0
 22 23  1  0
 23 24  1  0
 23 25  1  0
 23 26  1  0
 22 27  1  0
 27 28  1  0
 28 29  1  0
 28 30  1  0
 27 31  2  0
 31 32  1  0
  7 33  1  0
 33 34  1  0
 33 35  2  0
 35 36  1  0
 35  2  1  0
 31  8  1  0
 18  9  1  0
M  CHG  1  31   1
M  END
>  <score>  (263) 
5.47328

$$$$

     RDKit          3D

 44 46  0  0  0  0  0  0  0  0999 V2000
   15.0951   -7.9247   -3.9168 H   0  0  0  0  0  0  0  0  0  0  0  0
   14.1437   -7.6746   -3.7790 O   0  0  0  0  0  0  0  0  0  0  0  0
   14.3900   -8.1274   -2.3581 P   0  0  0  0  0  0  0  0  0  0  0  0
   14.3835   -9.5371   -1.9624 O   0  0  0  0  0  0  0  0  0  0  0  0
   15.5924   -7.6031   -3.1587 O   0  0  0  0  0  0  0  0  0  0  0  0
   14.9322   -7.1268   -3.7312 H   0  0  0  0  0  0  0  0  0  0  0  0
   13.6332   -7.2747   -1.0020 C   0  0  0  0  0  0  0  0  0  0  0  0
   12.7329   -6.7753   -1.3711 H   0  0  0  0  0  0  0  0  0  0  0  0
   13.3768   -7.9972   -0.2294 H   0  0  0  0  0  0  0  0  0  0  0  0
   14.6503   -6.2905   -0.5221 C   0  0  0  0  0  0  0  0  0  0  0  0
   15.9686   -6.7018   -0.2994 C   0  0  0  0  0  0  0  0  0  0  0  0
   16.2120   -7.7611   -0.2982 H   0  0  0  0  0  0  0  0  0  0  0  0
   16.9835   -5.7491   -0.2001 C   0  0  0  0  0  0  0  0  0  0  0  0
   18.0197   -6.0594   -0.1209 H   0  0  0  0  0  0  0  0  0  0  0  0
   16.6685   -4.3891   -0.2440 C   0  0  0  0  0  0  0  0  0  0  0  0
   17.4581   -3.6452   -0.2000 H   0  0  0  0  0  0  0  0  0  0  0  0
   15.3364   -3.9663   -0.3369 C   0  0  0  0  0  0  0  0  0  0  0  0
   14.9953   -2.4834   -0.3198 C   0  0  0  0  0  0  0  0  0  0  0  0
   15.5842   -1.7080   -1.4843 C   0  0  0  0  0  0  0  0  0  0  0  0
   16.0191   -2.3915   -2.6330 C   0  0  0  0  0  0  0  0  0  0  0  0
   15.9990   -3.4773   -2.6463 H   0  0  0  0  0  0  0  0  0  0  0  0
   16.4554   -1.6965   -3.7629 C   0  0  0  0  0  0  0  0  0  0  0  0
   16.7800   -2.2367   -4.6476 H   0  0  0  0  0  0  0  0  0  0  0  0
   16.4574   -0.2994   -3.7508 C   0  0  0  0  0  0  0  0  0  0  0  0
   16.7866    0.2478   -4.6271 H   0  0  0  0  0  0  0  0  0  0  0  0
   16.0281    0.3981   -2.6150 C   0  0  0  0  0  0  0  0  0  0  0  0
   16.0225    1.4841   -2.6097 H   0  0  0  0  0  0  0  0  0  0  0  0
   15.5895   -0.3017   -1.4837 C   0  0  0  0  0  0  0  0  0  0  0  0
   15.2345    0.2406   -0.6085 H   0  0  0  0  0  0  0  0  0  0  0  0
   13.4746   -2.2588   -0.2620 C   0  0  0  0  0  0  0  0  0  0  0  0
   12.6535   -2.4890   -1.1458 O   0  0  0  0  0  0  0  0  0  0  0  0
   13.1270   -1.9538    1.0325 N   0  0  0  0  0  0  0  0  0  0  0  0
   11.7908   -2.1309    1.5956 C   0  0  0  0  0  0  0  0  0  0  0  0
   11.1043   -2.5514    0.8491 H   0  0  0  0  0  0  0  0  0  0  0  0
   11.3857   -1.1673    1.9027 H   0  0  0  0  0  0  0  0  0  0  0  0
   11.8193   -2.8003    2.4650 H   0  0  0  0  0  0  0  0  0  0  0  0
   14.3120   -1.9399    1.7381 C   0  0  0  0  0  0  0  0  0  0  0  0
   14.4276   -2.0242    3.0785 N   0  0  0  0  0  0  0  0  0  0  0  0
   15.3541   -1.8797    3.4793 H   0  0  0  0  0  0  0  0  0  0  0  0
   13.6088   -1.8042    3.6414 H   0  0  0  0  0  0  0  0  0  0  0  0
   15.3792   -1.9986    1.0128 N   0  0  0  0  0  4  0  0  0  0  0  0
   16.2480   -2.3125    1.4509 H   0  0  0  0  0  0  0  0  0  0  0  0
   14.3330   -4.9375   -0.4777 C   0  0  0  0  0  0  0  0  0  0  0  0
   13.2951   -4.6461   -0.5944 H   0  0  0  0  0  0  0  0  0  0  0  0
  1  2  1  0
  2  3  1  0
  3  4  2  0
  3  5  1  0
  5  6  1  0
  3  7  1  0
  7  8  1  0
  7  9  1  0
  7 10  1  0
 10 11  2  0
 11 12  1  0
 11 13  1  0
 13 14  1  0
 13 15  2  0
 15 16  1  0
 15 17  1  0
 17 18  1  0
 18 19  1  0
 19 20  2  0
 20 21  1  0
 20 22  1  0
 22 23  1  0
 22 24  2  0
 24 25  1  0
 24 26  1  0
 26 27  1  0
 26 28  2  0
 28 29  1  0
 18 30  1  0
 30 31  2  0
 30 32  1  0
 32 33  1  0
 33 34  1  0
 33 35  1  0
 33 36  1  0
 32 37  1  0
 37 38  1  0
 38 39  1  0
 38 40  1  0
 37 41  2  0
 41 42  1  0
 17 43  2  0
 43 44  1  0
 43 10  1  0
 41 18  1  0
 28 19  1  0
M  CHG  1  41   1
M  END
>  <score>  (264) 
5.47319

$$$$

     RDKit          3D

 49 52  0  0  0  0  0  0  0  0999 V2000
    8.8343   -6.7534    1.3361 H   0  0  0  0  0  0  0  0  0  0  0  0
    9.6812   -6.9261    0.6748 C   0  0  0  0  0  0  0  0  0  0  0  0
   10.4108   -8.0405    0.8437 N   0  0  0  0  0  0  0  0  0  0  0  0
   11.4508   -8.2630    0.0190 C   0  0  0  0  0  0  0  0  0  0  0  0
   12.0550   -9.1545    0.1592 H   0  0  0  0  0  0  0  0  0  0  0  0
   11.7827   -7.4016   -1.0390 C   0  0  0  0  0  0  0  0  0  0  0  0
   12.8622   -7.8019   -2.0314 C   0  0  0  0  0  0  0  0  0  0  0  0
   13.0268   -6.9952   -2.7514 H   0  0  0  0  0  0  0  0  0  0  0  0
   12.5138   -8.6789   -2.5935 H   0  0  0  0  0  0  0  0  0  0  0  0
   14.1298   -8.1284   -1.4398 O   0  0  0  0  0  0  0  0  0  0  0  0
   14.9775   -7.0733   -1.1901 C   0  0  0  0  0  0  0  0  0  0  0  0
   16.3185   -7.3469   -0.9003 C   0  0  0  0  0  0  0  0  0  0  0  0
   16.6652   -8.3758   -0.9166 H   0  0  0  0  0  0  0  0  0  0  0  0
   17.2035   -6.3085   -0.5869 C   0  0  0  0  0  0  0  0  0  0  0  0
   18.2500   -6.5076   -0.3735 H   0  0  0  0  0  0  0  0  0  0  0  0
   16.7359   -4.9960   -0.5205 C   0  0  0  0  0  0  0  0  0  0  0  0
   17.4124   -4.2096   -0.1966 H   0  0  0  0  0  0  0  0  0  0  0  0
   15.4061   -4.6842   -0.8349 C   0  0  0  0  0  0  0  0  0  0  0  0
   14.9143   -3.2550   -0.6742 C   0  0  0  0  0  0  0  0  0  0  0  0
   15.4187   -2.2614   -1.7213 C   0  0  0  0  0  0  0  0  0  0  0  0
   15.9407   -2.6742   -2.9604 C   0  0  0  0  0  0  0  0  0  0  0  0
   15.9921   -3.7323   -3.1996 H   0  0  0  0  0  0  0  0  0  0  0  0
   16.4033   -1.7308   -3.8901 C   0  0  0  0  0  0  0  0  0  0  0  0
   16.8168   -2.0531   -4.8385 H   0  0  0  0  0  0  0  0  0  0  0  0
   16.3438   -0.3646   -3.6031 C   0  0  0  0  0  0  0  0  0  0  0  0
   16.7203    0.3630   -4.3174 H   0  0  0  0  0  0  0  0  0  0  0  0
   15.7969    0.0611   -2.3919 C   0  0  0  0  0  0  0  0  0  0  0  0
   15.7396    1.1214   -2.1655 H   0  0  0  0  0  0  0  0  0  0  0  0
   15.3304   -0.8785   -1.4658 C   0  0  0  0  0  0  0  0  0  0  0  0
   14.9028   -0.5284   -0.5299 H   0  0  0  0  0  0  0  0  0  0  0  0
   13.3875   -3.1498   -0.5130 C   0  0  0  0  0  0  0  0  0  0  0  0
   12.5331   -3.3998   -1.3628 O   0  0  0  0  0  0  0  0  0  0  0  0
   13.0959   -2.6883    0.7567 N   0  0  0  0  0  0  0  0  0  0  0  0
   11.7825   -2.3275    1.2881 C   0  0  0  0  0  0  0  0  0  0  0  0
   11.7596   -1.2622    1.5458 H   0  0  0  0  0  0  0  0  0  0  0  0
   11.5581   -2.9082    2.1905 H   0  0  0  0  0  0  0  0  0  0  0  0
   10.9919   -2.5183    0.5528 H   0  0  0  0  0  0  0  0  0  0  0  0
   14.2933   -2.5452    1.4204 C   0  0  0  0  0  0  0  0  0  0  0  0
   14.4606   -2.1677    2.7184 N   0  0  0  0  0  0  0  0  0  0  0  0
   13.6429   -2.1229    3.3231 H   0  0  0  0  0  0  0  0  0  0  0  0
   15.3912   -2.2484    3.1256 H   0  0  0  0  0  0  0  0  0  0  0  0
   15.3098   -2.8285    0.6813 N   0  0  0  0  0  4  0  0  0  0  0  0
   16.2611   -2.9175    1.0408 H   0  0  0  0  0  0  0  0  0  0  0  0
   14.5439   -5.7367   -1.1971 C   0  0  0  0  0  0  0  0  0  0  0  0
   13.5114   -5.5501   -1.4642 H   0  0  0  0  0  0  0  0  0  0  0  0
   11.0484   -6.2143   -1.1855 C   0  0  0  0  0  0  0  0  0  0  0  0
   11.2831   -5.4929   -1.9668 H   0  0  0  0  0  0  0  0  0  0  0  0
    9.9915   -5.9759   -0.3048 C   0  0  0  0  0  0  0  0  0  0  0  0
    9.3811   -5.0836   -0.3910 H   0  0  0  0  0  0  0  0  0  0  0  0
  1  2  1  0
  2  3  2  0
  3  4  1  0
  4  5  1  0
  4  6  2  0
  6  7  1  0
  7  8  1  0
  7  9  1  0
  7 10  1  0
 10 11  1  0
 11 12  2  0
 12 13  1  0
 12 14  1  0
 14 15  1  0
 14 16  2  0
 16 17  1  0
 16 18  1  0
 18 19  1  0
 19 20  1  0
 20 21  2  0
 21 22  1  0
 21 23  1  0
 23 24  1  0
 23 25  2  0
 25 26  1  0
 25 27  1  0
 27 28  1  0
 27 29  2  0
 29 30  1  0
 19 31  1  0
 31 32  2  0
 31 33  1  0
 33 34  1  0
 34 35  1  0
 34 36  1  0
 34 37  1  0
 33 38  1  0
 38 39  1  0
 39 40  1  0
 39 41  1  0
 38 42  2  0
 42 43  1  0
 18 44  2  0
 44 45  1  0
  6 46  1  0
 46 47  1  0
 46 48  2  0
 48 49  1  0
 48  2  1  0
 44 11  1  0
 42 19  1  0
 29 20  1  0
M  CHG  1  42   1
M  END
>  <score>  (265) 
5.47025

$$$$

     RDKit          3D

 57 59  0  0  0  0  0  0  0  0999 V2000
   16.1059   -8.3616   -1.7051 H   0  0  0  0  0  0  0  0  0  0  0  0
   15.8798   -7.3154   -1.5186 C   0  0  0  0  0  0  0  0  0  0  0  0
   16.7841   -6.5108   -0.8193 C   0  0  0  0  0  0  0  0  0  0  0  0
   17.7215   -6.9327   -0.4695 H   0  0  0  0  0  0  0  0  0  0  0  0
   16.4769   -5.1678   -0.5557 C   0  0  0  0  0  0  0  0  0  0  0  0
   17.1884   -4.5599   -0.0040 H   0  0  0  0  0  0  0  0  0  0  0  0
   15.2556   -4.6087   -0.9767 C   0  0  0  0  0  0  0  0  0  0  0  0
   14.8718   -3.1599   -0.6447 C   0  0  0  0  0  0  0  0  0  0  0  0
   15.3430   -2.1355   -1.6843 C   0  0  0  0  0  0  0  0  0  0  0  0
   15.9894   -2.5541   -2.8567 C   0  0  0  0  0  0  0  0  0  0  0  0
   16.1611   -3.6141   -3.0138 H   0  0  0  0  0  0  0  0  0  0  0  0
   16.4050   -1.6380   -3.8292 C   0  0  0  0  0  0  0  0  0  0  0  0
   16.9090   -1.9869   -4.7262 H   0  0  0  0  0  0  0  0  0  0  0  0
   16.1634   -0.2727   -3.6484 C   0  0  0  0  0  0  0  0  0  0  0  0
   16.4782    0.4427   -4.4032 H   0  0  0  0  0  0  0  0  0  0  0  0
   15.5009    0.1814   -2.5051 C   0  0  0  0  0  0  0  0  0  0  0  0
   15.2769    1.5299   -2.3805 O   0  0  0  0  0  0  0  0  0  0  0  0
   14.2798    1.9379   -1.4302 C   0  0  0  0  0  0  0  0  0  0  0  0
   14.5176    1.5525   -0.4419 H   0  0  0  0  0  0  0  0  0  0  0  0
   13.3096    1.5386   -1.7395 H   0  0  0  0  0  0  0  0  0  0  0  0
   14.1929    3.4630   -1.3572 C   0  0  0  0  0  0  0  0  0  0  0  0
   13.3613    3.7617   -0.7134 H   0  0  0  0  0  0  0  0  0  0  0  0
   13.9590    3.8245   -2.3645 H   0  0  0  0  0  0  0  0  0  0  0  0
   15.4509    4.0903   -0.8835 N   0  0  0  0  0  0  0  0  0  0  0  0
   15.9866    3.7594    0.4548 C   0  0  0  0  0  0  0  0  0  0  0  0
   15.1739    3.7043    1.1849 H   0  0  0  0  0  0  0  0  0  0  0  0
   16.6841    4.5342    0.7974 H   0  0  0  0  0  0  0  0  0  0  0  0
   16.7582    2.4500    0.3951 C   0  0  0  0  0  0  0  0  0  0  0  0
   16.1080    1.5973    0.1981 H   0  0  0  0  0  0  0  0  0  0  0  0
   17.4982    2.5149   -0.4038 H   0  0  0  0  0  0  0  0  0  0  0  0
   17.2805    2.2767    1.3373 H   0  0  0  0  0  0  0  0  0  0  0  0
   16.4307    4.2781   -1.9604 C   0  0  0  0  0  0  0  0  0  0  0  0
   16.5084    3.3702   -2.5617 H   0  0  0  0  0  0  0  0  0  0  0  0
   17.4255    4.5042   -1.5617 H   0  0  0  0  0  0  0  0  0  0  0  0
   15.9061    5.4096   -2.8176 C   0  0  0  0  0  0  0  0  0  0  0  0
   16.7009    5.7859   -3.4629 H   0  0  0  0  0  0  0  0  0  0  0  0
   15.0641    5.0659   -3.4297 H   0  0  0  0  0  0  0  0  0  0  0  0
   15.5592    6.2169   -2.1690 H   0  0  0  0  0  0  0  0  0  0  0  0
   15.0931   -0.7510   -1.5369 C   0  0  0  0  0  0  0  0  0  0  0  0
   14.5767   -0.3564   -0.6702 H   0  0  0  0  0  0  0  0  0  0  0  0
   13.3525   -3.0194   -0.4444 C   0  0  0  0  0  0  0  0  0  0  0  0
   12.4732   -3.2322   -1.2777 O   0  0  0  0  0  0  0  0  0  0  0  0
   13.0829   -2.6109    0.8445 N   0  0  0  0  0  0  0  0  0  0  0  0
   11.7639   -2.2730    1.3815 C   0  0  0  0  0  0  0  0  0  0  0  0
   11.7179   -1.2113    1.6469 H   0  0  0  0  0  0  0  0  0  0  0  0
   10.9843   -2.4684    0.6355 H   0  0  0  0  0  0  0  0  0  0  0  0
   11.5340   -2.8694    2.2717 H   0  0  0  0  0  0  0  0  0  0  0  0
   14.2941   -2.5049    1.4928 C   0  0  0  0  0  0  0  0  0  0  0  0
   14.4722   -2.1483    2.7971 N   0  0  0  0  0  0  0  0  0  0  0  0
   13.6583   -2.0958    3.4070 H   0  0  0  0  0  0  0  0  0  0  0  0
   15.3978   -2.2672    3.2045 H   0  0  0  0  0  0  0  0  0  0  0  0
   15.2955   -2.8000    0.7281 N   0  0  0  0  0  4  0  0  0  0  0  0
   16.2541   -2.8951    1.0684 H   0  0  0  0  0  0  0  0  0  0  0  0
   14.3721   -5.4281   -1.7079 C   0  0  0  0  0  0  0  0  0  0  0  0
   13.4290   -5.0260   -2.0645 H   0  0  0  0  0  0  0  0  0  0  0  0
   14.6772   -6.7692   -1.9711 C   0  0  0  0  0  0  0  0  0  0  0  0
   13.9730   -7.3894   -2.5174 H   0  0  0  0  0  0  0  0  0  0  0  0
  1  2  1  0
  2  3  2  0
  3  4  1  0
  3  5  1  0
  5  6  1  0
  5  7  2  0
  7  8  1  0
  8  9  1  0
  9 10  2  0
 10 11  1  0
 10 12  1  0
 12 13  1  0
 12 14  2  0
 14 15  1  0
 14 16  1  0
 16 17  1  0
 17 18  1  0
 18 19  1  0
 18 20  1  0
 18 21  1  0
 21 22  1  0
 21 23  1  0
 21 24  1  0
 24 25  1  0
 25 26  1  0
 25 27  1  0
 25 28  1  0
 28 29  1  0
 28 30  1  0
 28 31  1  0
 24 32  1  0
 32 33  1  0
 32 34  1  0
 32 35  1  0
 35 36  1  0
 35 37  1  0
 35 38  1  0
 16 39  2  0
 39 40  1  0
  8 41  1  0
 41 42  2  0
 41 43  1  0
 43 44  1  0
 44 45  1  0
 44 46  1  0
 44 47  1  0
 43 48  1  0
 48 49  1  0
 49 50  1  0
 49 51  1  0
 48 52  2  0
 52 53  1  0
  7 54  1  0
 54 55  1  0
 54 56  2  0
 56 57  1  0
 56  2  1  0
 52  8  1  0
 39  9  1  0
M  CHG  1  52   1
M  END
>  <score>  (266) 
5.46684

$$$$

     RDKit          3D

 53 55  0  0  0  0  0  0  0  0999 V2000
   10.8059  -11.4342   -4.2032 H   0  0  0  0  0  0  0  0  0  0  0  0
   10.6322  -11.3324   -3.2443 O   0  0  0  0  0  0  0  0  0  0  0  0
   11.6997  -10.6555   -2.5684 N   0  0  0  0  0  0  0  0  0  0  0  0
   12.0287   -9.7671   -2.9504 H   0  0  0  0  0  0  0  0  0  0  0  0
   12.2012  -10.9772   -1.3126 C   0  0  0  0  0  0  0  0  0  0  0  0
   11.8362  -11.9832   -0.7094 O   0  0  0  0  0  0  0  0  0  0  0  0
   13.3759  -10.1800   -0.7502 C   0  0  0  0  0  0  0  0  0  0  0  0
   13.7256  -10.6683    0.1648 H   0  0  0  0  0  0  0  0  0  0  0  0
   14.1992  -10.1961   -1.4742 H   0  0  0  0  0  0  0  0  0  0  0  0
   12.9811   -8.7231   -0.4409 C   0  0  0  0  0  0  0  0  0  0  0  0
   12.1233   -8.6933    0.2416 H   0  0  0  0  0  0  0  0  0  0  0  0
   13.8106   -8.2064    0.0543 H   0  0  0  0  0  0  0  0  0  0  0  0
   12.6610   -7.9742   -1.7390 C   0  0  0  0  0  0  0  0  0  0  0  0
   12.2411   -6.9877   -1.5128 H   0  0  0  0  0  0  0  0  0  0  0  0
   11.9020   -8.5168   -2.3067 H   0  0  0  0  0  0  0  0  0  0  0  0
   13.9523   -7.8104   -2.5629 C   0  0  0  0  0  0  0  0  0  0  0  0
   14.4074   -8.7889   -2.7421 H   0  0  0  0  0  0  0  0  0  0  0  0
   13.7413   -7.3668   -3.5397 H   0  0  0  0  0  0  0  0  0  0  0  0
   14.9064   -6.9009   -1.8259 C   0  0  0  0  0  0  0  0  0  0  0  0
   16.1389   -7.3514   -1.3235 C   0  0  0  0  0  0  0  0  0  0  0  0
   16.4376   -8.3885   -1.4470 H   0  0  0  0  0  0  0  0  0  0  0  0
   16.9907   -6.4599   -0.6530 C   0  0  0  0  0  0  0  0  0  0  0  0
   17.9523   -6.7874   -0.2640 H   0  0  0  0  0  0  0  0  0  0  0  0
   16.6054   -5.1274   -0.4698 C   0  0  0  0  0  0  0  0  0  0  0  0
   17.2687   -4.4333    0.0377 H   0  0  0  0  0  0  0  0  0  0  0  0
   15.3548   -4.6725   -0.9074 C   0  0  0  0  0  0  0  0  0  0  0  0
   14.9185   -3.2356   -0.6344 C   0  0  0  0  0  0  0  0  0  0  0  0
   15.4274   -2.2519   -1.6816 C   0  0  0  0  0  0  0  0  0  0  0  0
   15.9403   -2.6830   -2.9189 C   0  0  0  0  0  0  0  0  0  0  0  0
   15.9823   -3.7457   -3.1395 H   0  0  0  0  0  0  0  0  0  0  0  0
   16.4034   -1.7579   -3.8637 C   0  0  0  0  0  0  0  0  0  0  0  0
   16.8137   -2.0986   -4.8081 H   0  0  0  0  0  0  0  0  0  0  0  0
   16.3432   -0.3886   -3.5913 C   0  0  0  0  0  0  0  0  0  0  0  0
   16.7100    0.3290   -4.3198 H   0  0  0  0  0  0  0  0  0  0  0  0
   15.8068    0.0531   -2.3787 C   0  0  0  0  0  0  0  0  0  0  0  0
   15.7496    1.1143   -2.1611 H   0  0  0  0  0  0  0  0  0  0  0  0
   15.3472   -0.8708   -1.4355 C   0  0  0  0  0  0  0  0  0  0  0  0
   14.9295   -0.5170   -0.4962 H   0  0  0  0  0  0  0  0  0  0  0  0
   13.3950   -3.0838   -0.4616 C   0  0  0  0  0  0  0  0  0  0  0  0
   12.5259   -3.3173   -1.3006 O   0  0  0  0  0  0  0  0  0  0  0  0
   13.1114   -2.6156    0.8057 N   0  0  0  0  0  0  0  0  0  0  0  0
   11.7882   -2.2847    1.3376 C   0  0  0  0  0  0  0  0  0  0  0  0
   11.5692   -2.8866    2.2258 H   0  0  0  0  0  0  0  0  0  0  0  0
   11.0064   -2.4813    0.5937 H   0  0  0  0  0  0  0  0  0  0  0  0
   11.7312   -1.2254    1.6124 H   0  0  0  0  0  0  0  0  0  0  0  0
   14.3125   -2.5117    1.4739 C   0  0  0  0  0  0  0  0  0  0  0  0
   14.4809   -2.1394    2.7741 N   0  0  0  0  0  0  0  0  0  0  0  0
   13.6660   -2.0919    3.3822 H   0  0  0  0  0  0  0  0  0  0  0  0
   15.4094   -2.2380    3.1843 H   0  0  0  0  0  0  0  0  0  0  0  0
   15.3200   -2.8305    0.7315 N   0  0  0  0  0  4  0  0  0  0  0  0
   16.2805   -2.8773    1.0772 H   0  0  0  0  0  0  0  0  0  0  0  0
   14.5275   -5.5699   -1.6032 C   0  0  0  0  0  0  0  0  0  0  0  0
   13.5628   -5.2400   -1.9722 H   0  0  0  0  0  0  0  0  0  0  0  0
  1  2  1  0
  2  3  1  0
  3  4  1  0
  3  5  1  0
  5  6  2  0
  5  7  1  0
  7  8  1  0
  7  9  1  0
  7 10  1  0
 10 11  1  0
 10 12  1  0
 10 13  1  0
 13 14  1  0
 13 15  1  0
 13 16  1  0
 16 17  1  0
 16 18  1  0
 16 19  1  0
 19 20  2  0
 20 21  1  0
 20 22  1  0
 22 23  1  0
 22 24  2  0
 24 25  1  0
 24 26  1  0
 26 27  1  0
 27 28  1  0
 28 29  2  0
 29 30  1  0
 29 31  1  0
 31 32  1  0
 31 33  2  0
 33 34  1  0
 33 35  1  0
 35 36  1  0
 35 37  2  0
 37 38  1  0
 27 39  1  0
 39 40  2  0
 39 41  1  0
 41 42  1  0
 42 43  1  0
 42 44  1  0
 42 45  1  0
 41 46  1  0
 46 47  1  0
 47 48  1  0
 47 49  1  0
 46 50  2  0
 50 51  1  0
 26 52  2  0
 52 53  1  0
 52 19  1  0
 50 27  1  0
 37 28  1  0
M  CHG  1  50   1
M  END
>  <score>  (267) 
5.46645

$$$$

     RDKit          3D

 38 40  0  0  0  0  0  0  0  0999 V2000
   16.1253   -8.4895   -1.6108 H   0  0  0  0  0  0  0  0  0  0  0  0
   15.8545   -7.4451   -1.4700 C   0  0  0  0  0  0  0  0  0  0  0  0
   16.7272   -6.5863   -0.7990 C   0  0  0  0  0  0  0  0  0  0  0  0
   17.6755   -6.9551   -0.4189 H   0  0  0  0  0  0  0  0  0  0  0  0
   16.3856   -5.2424   -0.6083 C   0  0  0  0  0  0  0  0  0  0  0  0
   17.0698   -4.5947   -0.0691 H   0  0  0  0  0  0  0  0  0  0  0  0
   15.1672   -4.7155   -1.0746 C   0  0  0  0  0  0  0  0  0  0  0  0
   14.8108   -3.2412   -0.7912 C   0  0  0  0  0  0  0  0  0  0  0  0
   15.3892   -2.2261   -1.7863 C   0  0  0  0  0  0  0  0  0  0  0  0
   15.9444   -2.6319   -3.0098 C   0  0  0  0  0  0  0  0  0  0  0  0
   16.0048   -3.6900   -3.2630 H   0  0  0  0  0  0  0  0  0  0  0  0
   16.4218   -1.6791   -3.9165 C   0  0  0  0  0  0  0  0  0  0  0  0
   16.8548   -2.0009   -4.8554 H   0  0  0  0  0  0  0  0  0  0  0  0
   16.3469   -0.3147   -3.6286 C   0  0  0  0  0  0  0  0  0  0  0  0
   16.7149    0.4017   -4.3631 H   0  0  0  0  0  0  0  0  0  0  0  0
   15.7971    0.1324   -2.4114 C   0  0  0  0  0  0  0  0  0  0  0  0
   15.7222    1.5171   -2.1156 N   0  0  0  0  0  4  0  0  0  0  0  0
   15.2381    1.8673   -1.0306 O   0  0  0  0  0  0  0  0  0  0  0  0
   16.1441    2.3103   -2.9616 O   0  0  0  0  0  1  0  0  0  0  0  0
   15.3263   -0.8448   -1.5101 C   0  0  0  0  0  0  0  0  0  0  0  0
   14.8991   -0.5292   -0.5647 H   0  0  0  0  0  0  0  0  0  0  0  0
   13.2922   -3.0238   -0.6085 C   0  0  0  0  0  0  0  0  0  0  0  0
   12.4254   -3.0813   -1.4764 O   0  0  0  0  0  0  0  0  0  0  0  0
   13.0214   -2.6715    0.7001 N   0  0  0  0  0  0  0  0  0  0  0  0
   11.7179   -2.3125    1.2635 C   0  0  0  0  0  0  0  0  0  0  0  0
   10.9142   -2.4749    0.5386 H   0  0  0  0  0  0  0  0  0  0  0  0
   11.6935   -1.2595    1.5600 H   0  0  0  0  0  0  0  0  0  0  0  0
   11.5007   -2.9199    2.1464 H   0  0  0  0  0  0  0  0  0  0  0  0
   14.2240   -2.6298    1.3657 C   0  0  0  0  0  0  0  0  0  0  0  0
   14.3927   -2.3380    2.6901 N   0  0  0  0  0  0  0  0  0  0  0  0
   15.3273   -2.3562    3.0958 H   0  0  0  0  0  0  0  0  0  0  0  0
   13.5804   -2.1262    3.2667 H   0  0  0  0  0  0  0  0  0  0  0  0
   15.2209   -2.9021    0.5889 N   0  0  0  0  0  4  0  0  0  0  0  0
   16.1909   -2.9009    0.8981 H   0  0  0  0  0  0  0  0  0  0  0  0
   14.3011   -5.5949   -1.7686 C   0  0  0  0  0  0  0  0  0  0  0  0
   13.3527   -5.2444   -2.1667 H   0  0  0  0  0  0  0  0  0  0  0  0
   14.6431   -6.9468   -1.9603 C   0  0  0  0  0  0  0  0  0  0  0  0
   13.9725   -7.6196   -2.4886 H   0  0  0  0  0  0  0  0  0  0  0  0
  1  2  1  0
  2  3  2  0
  3  4  1  0
  3  5  1  0
  5  6  1  0
  5  7  2  0
  7  8  1  0
  8  9  1  0
  9 10  2  0
 10 11  1  0
 10 12  1  0
 12 13  1  0
 12 14  2  0
 14 15  1  0
 14 16  1  0
 16 17  1  0
 17 18  2  0
 17 19  1  0
 16 20  2  0
 20 21  1  0
  8 22  1  0
 22 23  2  0
 22 24  1  0
 24 25  1  0
 25 26  1  0
 25 27  1  0
 25 28  1  0
 24 29  1  0
 29 30  1  0
 30 31  1  0
 30 32  1  0
 29 33  2  0
 33 34  1  0
  7 35  1  0
 35 36  1  0
 35 37  2  0
 37 38  1  0
 37  2  1  0
 33  8  1  0
 20  9  1  0
M  CHG  3  17   1  19  -1  33   1
M  END
>  <score>  (268) 
5.4637

$$$$

     RDKit          3D

 56 59  0  0  0  0  0  0  0  0999 V2000
   16.1252   -8.4596   -1.7110 H   0  0  0  0  0  0  0  0  0  0  0  0
   15.8887   -7.4177   -1.5145 C   0  0  0  0  0  0  0  0  0  0  0  0
   16.7897   -6.6132   -0.8079 C   0  0  0  0  0  0  0  0  0  0  0  0
   17.7318   -7.0268   -0.4576 H   0  0  0  0  0  0  0  0  0  0  0  0
   16.4748   -5.2743   -0.5439 C   0  0  0  0  0  0  0  0  0  0  0  0
   17.1809   -4.6577    0.0046 H   0  0  0  0  0  0  0  0  0  0  0  0
   15.2584   -4.7222   -0.9780 C   0  0  0  0  0  0  0  0  0  0  0  0
   14.9117   -3.2660   -0.6961 C   0  0  0  0  0  0  0  0  0  0  0  0
   15.4209   -2.3033   -1.7587 C   0  0  0  0  0  0  0  0  0  0  0  0
   16.0780   -2.7457   -2.9132 C   0  0  0  0  0  0  0  0  0  0  0  0
   16.2415   -3.8102   -3.0503 H   0  0  0  0  0  0  0  0  0  0  0  0
   16.4805   -1.8369   -3.8987 C   0  0  0  0  0  0  0  0  0  0  0  0
   16.9674   -2.1914   -4.7972 H   0  0  0  0  0  0  0  0  0  0  0  0
   16.2413   -0.4681   -3.7280 C   0  0  0  0  0  0  0  0  0  0  0  0
   16.5471    0.2495   -4.4796 H   0  0  0  0  0  0  0  0  0  0  0  0
   15.5626   -0.0107   -2.5993 C   0  0  0  0  0  0  0  0  0  0  0  0
   15.2241    1.3408   -2.4517 N   0  0  0  0  0  0  0  0  0  0  0  0
   16.1915    2.4138   -2.7360 C   0  0  0  0  0  0  0  0  0  0  0  0
   15.6662    3.3632   -2.8859 H   0  0  0  0  0  0  0  0  0  0  0  0
   16.7369    2.1875   -3.6554 H   0  0  0  0  0  0  0  0  0  0  0  0
   17.1627    2.5439   -1.5610 C   0  0  0  0  0  0  0  0  0  0  0  0
   18.0356    3.1242   -1.8772 H   0  0  0  0  0  0  0  0  0  0  0  0
   17.4903    1.5358   -1.2921 H   0  0  0  0  0  0  0  0  0  0  0  0
   16.5523    3.1950   -0.3802 N   0  0  0  0  0  0  0  0  0  0  0  0
   16.4455    4.6512   -0.3967 C   0  0  0  0  0  0  0  0  0  0  0  0
   17.2570    5.0577   -0.9984 H   0  0  0  0  0  0  0  0  0  0  0  0
   15.4933    4.9742   -0.8261 H   0  0  0  0  0  0  0  0  0  0  0  0
   16.5145    5.0297    0.6281 H   0  0  0  0  0  0  0  0  0  0  0  0
   15.4052    2.5207    0.2338 C   0  0  0  0  0  0  0  0  0  0  0  0
   15.2421    2.9589    1.2225 H   0  0  0  0  0  0  0  0  0  0  0  0
   15.6495    1.4647    0.3615 H   0  0  0  0  0  0  0  0  0  0  0  0
   14.1267    2.6967   -0.5938 C   0  0  0  0  0  0  0  0  0  0  0  0
   13.2572    2.5792    0.0651 H   0  0  0  0  0  0  0  0  0  0  0  0
   14.1009    3.7072   -1.0073 H   0  0  0  0  0  0  0  0  0  0  0  0
   13.9863    1.6856   -1.7299 C   0  0  0  0  0  0  0  0  0  0  0  0
   13.2759    2.0849   -2.4555 H   0  0  0  0  0  0  0  0  0  0  0  0
   13.5463    0.7813   -1.3069 H   0  0  0  0  0  0  0  0  0  0  0  0
   15.1577   -0.9304   -1.6284 C   0  0  0  0  0  0  0  0  0  0  0  0
   14.6372   -0.5602   -0.7519 H   0  0  0  0  0  0  0  0  0  0  0  0
   13.3976   -3.0600   -0.5187 C   0  0  0  0  0  0  0  0  0  0  0  0
   12.5195   -3.2346   -1.3600 O   0  0  0  0  0  0  0  0  0  0  0  0
   13.1423   -2.5933    0.7568 N   0  0  0  0  0  0  0  0  0  0  0  0
   11.8302   -2.2765    1.3193 C   0  0  0  0  0  0  0  0  0  0  0  0
   11.0372   -2.4768    0.5868 H   0  0  0  0  0  0  0  0  0  0  0  0
   11.7756   -1.2165    1.6012 H   0  0  0  0  0  0  0  0  0  0  0  0
   11.6379   -2.8893    2.2101 H   0  0  0  0  0  0  0  0  0  0  0  0
   14.3529   -2.5106    1.4078 C   0  0  0  0  0  0  0  0  0  0  0  0
   14.5166   -2.1243    2.7084 N   0  0  0  0  0  0  0  0  0  0  0  0
   15.4301   -2.2770    3.1327 H   0  0  0  0  0  0  0  0  0  0  0  0
   13.6906   -2.0911    3.3037 H   0  0  0  0  0  0  0  0  0  0  0  0
   15.3452   -2.8711    0.6622 N   0  0  0  0  0  4  0  0  0  0  0  0
   16.3105   -2.9363    0.9921 H   0  0  0  0  0  0  0  0  0  0  0  0
   14.3699   -5.5395   -1.6992 C   0  0  0  0  0  0  0  0  0  0  0  0
   13.4300   -5.1322   -2.0583 H   0  0  0  0  0  0  0  0  0  0  0  0
   14.6799   -6.8782   -1.9663 C   0  0  0  0  0  0  0  0  0  0  0  0
   13.9777   -7.4983   -2.5170 H   0  0  0  0  0  0  0  0  0  0  0  0
  1  2  1  0
  2  3  2  0
  3  4  1  0
  3  5  1  0
  5  6  1  0
  5  7  2  0
  7  8  1  0
  8  9  1  0
  9 10  2  0
 10 11  1  0
 10 12  1  0
 12 13  1  0
 12 14  2  0
 14 15  1  0
 14 16  1  0
 16 17  1  0
 17 18  1  0
 18 19  1  0
 18 20  1  0
 18 21  1  0
 21 22  1  0
 21 23  1  0
 21 24  1  0
 24 25  1  0
 25 26  1  0
 25 27  1  0
 25 28  1  0
 24 29  1  0
 29 30  1  0
 29 31  1  0
 29 32  1  0
 32 33  1  0
 32 34  1  0
 32 35  1  0
 35 36  1  0
 35 37  1  0
 16 38  2  0
 38 39  1  0
  8 40  1  0
 40 41  2  0
 40 42  1  0
 42 43  1  0
 43 44  1  0
 43 45  1  0
 43 46  1  0
 42 47  1  0
 47 48  1  0
 48 49  1  0
 48 50  1  0
 47 51  2  0
 51 52  1  0
  7 53  1  0
 53 54  1  0
 53 55  2  0
 55 56  1  0
 55  2  1  0
 51  8  1  0
 38  9  1  0
 35 17  1  0
M  CHG  1  51   1
M  END
>  <score>  (269) 
5.46202

$$$$

     RDKit          3D

 46 49  0  0  0  0  0  0  0  0999 V2000
   13.5159  -11.4306   -1.9859 H   0  0  0  0  0  0  0  0  0  0  0  0
   13.5137  -10.3618   -1.8152 C   0  0  0  0  0  0  0  0  0  0  0  0
   12.5160   -9.5566   -2.0802 N   0  0  0  0  0  0  0  0  0  0  0  0
   12.9255   -8.3086   -1.7064 N   0  0  0  0  0  0  0  0  0  0  0  0
   12.0150   -7.1492   -1.7155 C   0  0  0  0  0  0  0  0  0  0  0  0
   12.4345   -6.3222   -2.2925 H   0  0  0  0  0  0  0  0  0  0  0  0
   11.0611   -7.4299   -2.1772 H   0  0  0  0  0  0  0  0  0  0  0  0
   11.8210   -6.8046   -0.6939 H   0  0  0  0  0  0  0  0  0  0  0  0
   14.2513   -8.3212   -1.2621 C   0  0  0  0  0  0  0  0  0  0  0  0
   15.1130   -7.1839   -0.9266 C   0  0  0  0  0  0  0  0  0  0  0  0
   16.4621   -7.4084   -0.6308 C   0  0  0  0  0  0  0  0  0  0  0  0
   16.8260   -8.4264   -0.5718 H   0  0  0  0  0  0  0  0  0  0  0  0
   17.3373   -6.3436   -0.4171 C   0  0  0  0  0  0  0  0  0  0  0  0
   18.3747   -6.5331   -0.1572 H   0  0  0  0  0  0  0  0  0  0  0  0
   16.8654   -5.0350   -0.4978 C   0  0  0  0  0  0  0  0  0  0  0  0
   17.5571   -4.2068   -0.3671 H   0  0  0  0  0  0  0  0  0  0  0  0
   15.5043   -4.7852   -0.7240 C   0  0  0  0  0  0  0  0  0  0  0  0
   14.9679   -3.3767   -0.6001 C   0  0  0  0  0  0  0  0  0  0  0  0
   15.4515   -2.4085   -1.6663 C   0  0  0  0  0  0  0  0  0  0  0  0
   15.9588   -2.8156   -2.9146 C   0  0  0  0  0  0  0  0  0  0  0  0
   16.0237   -3.8714   -3.1610 H   0  0  0  0  0  0  0  0  0  0  0  0
   16.3923   -1.8611   -3.8489 C   0  0  0  0  0  0  0  0  0  0  0  0
   16.7969   -2.1725   -4.8068 H   0  0  0  0  0  0  0  0  0  0  0  0
   16.3128   -0.4956   -3.5505 C   0  0  0  0  0  0  0  0  0  0  0  0
   16.6658    0.2427   -4.2658 H   0  0  0  0  0  0  0  0  0  0  0  0
   15.7733   -0.0841   -2.3289 C   0  0  0  0  0  0  0  0  0  0  0  0
   15.6934    0.9712   -2.0856 H   0  0  0  0  0  0  0  0  0  0  0  0
   15.3395   -1.0355   -1.4054 C   0  0  0  0  0  0  0  0  0  0  0  0
   14.9177   -0.7122   -0.4581 H   0  0  0  0  0  0  0  0  0  0  0  0
   13.4352   -3.2769   -0.4565 C   0  0  0  0  0  0  0  0  0  0  0  0
   12.5939   -3.5947   -1.2918 O   0  0  0  0  0  0  0  0  0  0  0  0
   13.1270   -2.7524    0.7867 N   0  0  0  0  0  0  0  0  0  0  0  0
   11.8088   -2.3471    1.2781 C   0  0  0  0  0  0  0  0  0  0  0  0
   11.0338   -2.5193    0.5230 H   0  0  0  0  0  0  0  0  0  0  0  0
   11.8064   -1.2793    1.5261 H   0  0  0  0  0  0  0  0  0  0  0  0
   11.5385   -2.9110    2.1783 H   0  0  0  0  0  0  0  0  0  0  0  0
   14.3178   -2.5694    1.4501 C   0  0  0  0  0  0  0  0  0  0  0  0
   14.4785   -2.1057    2.7168 N   0  0  0  0  0  0  0  0  0  0  0  0
   15.3990   -2.2293    3.1358 H   0  0  0  0  0  0  0  0  0  0  0  0
   13.6599   -2.0958    3.3218 H   0  0  0  0  0  0  0  0  0  0  0  0
   15.3418   -2.9074    0.7438 N   0  0  0  0  0  4  0  0  0  0  0  0
   16.2982   -2.9265    1.0982 H   0  0  0  0  0  0  0  0  0  0  0  0
   14.6372   -5.8654   -0.9490 C   0  0  0  0  0  0  0  0  0  0  0  0
   13.5824   -5.6703   -1.1074 H   0  0  0  0  0  0  0  0  0  0  0  0
   14.6325   -9.6332   -1.2859 C   0  0  0  0  0  0  0  0  0  0  0  0
   15.6057  -10.0503   -1.0357 H   0  0  0  0  0  0  0  0  0  0  0  0
  1  2  1  0
  2  3  2  0
  3  4  1  0
  4  5  1  0
  5  6  1  0
  5  7  1  0
  5  8  1  0
  4  9  1  0
  9 10  1  0
 10 11  2  0
 11 12  1  0
 11 13  1  0
 13 14  1  0
 13 15  2  0
 15 16  1  0
 15 17  1  0
 17 18  1  0
 18 19  1  0
 19 20  2  0
 20 21  1  0
 20 22  1  0
 22 23  1  0
 22 24  2  0
 24 25  1  0
 24 26  1  0
 26 27  1  0
 26 28  2  0
 28 29  1  0
 18 30  1  0
 30 31  2  0
 30 32  1  0
 32 33  1  0
 33 34  1  0
 33 35  1  0
 33 36  1  0
 32 37  1  0
 37 38  1  0
 38 39  1  0
 38 40  1  0
 37 41  2  0
 41 42  1  0
 17 43  2  0
 43 44  1  0
  9 45  2  0
 45 46  1  0
 45  2  1  0
 43 10  1  0
 41 18  1  0
 28 19  1  0
M  CHG  1  41   1
M  END
>  <score>  (270) 
5.45996

$$$$

     RDKit          3D

 48 51  0  0  0  0  0  0  0  0999 V2000
   12.6615  -11.1817   -4.4496 H   0  0  0  0  0  0  0  0  0  0  0  0
   13.3371  -10.9664   -3.7814 O   0  0  0  0  0  0  0  0  0  0  0  0
   12.9103   -9.8644   -3.1048 C   0  0  0  0  0  0  0  0  0  0  0  0
   11.5500   -9.6417   -2.9255 C   0  0  0  0  0  0  0  0  0  0  0  0
   10.8428  -10.3764   -3.2846 H   0  0  0  0  0  0  0  0  0  0  0  0
   11.1102   -8.4903   -2.2742 C   0  0  0  0  0  0  0  0  0  0  0  0
    9.7759   -8.2858   -2.0800 O   0  0  0  0  0  0  0  0  0  0  0  0
    9.2636   -8.9431   -2.5756 H   0  0  0  0  0  0  0  0  0  0  0  0
   12.0412   -7.5478   -1.8302 C   0  0  0  0  0  0  0  0  0  0  0  0
   11.6783   -6.6795   -1.2923 H   0  0  0  0  0  0  0  0  0  0  0  0
   13.4196   -7.7490   -2.0204 C   0  0  0  0  0  0  0  0  0  0  0  0
   14.4532   -6.7892   -1.5894 C   0  0  0  0  0  0  0  0  0  0  0  0
   15.7435   -7.2579   -1.2957 C   0  0  0  0  0  0  0  0  0  0  0  0
   15.9814   -8.3082   -1.4225 H   0  0  0  0  0  0  0  0  0  0  0  0
   16.7300   -6.4030   -0.8057 C   0  0  0  0  0  0  0  0  0  0  0  0
   17.7161   -6.7878   -0.5622 H   0  0  0  0  0  0  0  0  0  0  0  0
   16.4446   -5.0518   -0.6132 C   0  0  0  0  0  0  0  0  0  0  0  0
   17.2137   -4.3853   -0.2303 H   0  0  0  0  0  0  0  0  0  0  0  0
   15.1725   -4.5396   -0.9147 C   0  0  0  0  0  0  0  0  0  0  0  0
   14.8639   -3.0676   -0.6459 C   0  0  0  0  0  0  0  0  0  0  0  0
   15.4392   -2.1107   -1.6864 C   0  0  0  0  0  0  0  0  0  0  0  0
   15.9588   -2.5739   -2.9092 C   0  0  0  0  0  0  0  0  0  0  0  0
   15.9909   -3.6403   -3.1118 H   0  0  0  0  0  0  0  0  0  0  0  0
   16.4258   -1.6762   -3.8786 C   0  0  0  0  0  0  0  0  0  0  0  0
   16.8226   -2.0455   -4.8192 H   0  0  0  0  0  0  0  0  0  0  0  0
   16.3742   -0.2992   -3.6424 C   0  0  0  0  0  0  0  0  0  0  0  0
   16.7369    0.3964   -4.3946 H   0  0  0  0  0  0  0  0  0  0  0  0
   15.8522    0.1777   -2.4360 C   0  0  0  0  0  0  0  0  0  0  0  0
   15.8007    1.2462   -2.2481 H   0  0  0  0  0  0  0  0  0  0  0  0
   15.3868   -0.7217   -1.4690 C   0  0  0  0  0  0  0  0  0  0  0  0
   14.9709   -0.3405   -0.5402 H   0  0  0  0  0  0  0  0  0  0  0  0
   13.3543   -2.8183   -0.4795 C   0  0  0  0  0  0  0  0  0  0  0  0
   12.4857   -2.9364   -1.3449 O   0  0  0  0  0  0  0  0  0  0  0  0
   13.0836   -2.4754    0.8273 N   0  0  0  0  0  0  0  0  0  0  0  0
   11.7549   -2.2378    1.3922 C   0  0  0  0  0  0  0  0  0  0  0  0
   11.5827   -2.8785    2.2639 H   0  0  0  0  0  0  0  0  0  0  0  0
   11.6435   -1.1911    1.6947 H   0  0  0  0  0  0  0  0  0  0  0  0
   10.9780   -2.4603    0.6504 H   0  0  0  0  0  0  0  0  0  0  0  0
   14.2865   -2.4774    1.5044 C   0  0  0  0  0  0  0  0  0  0  0  0
   14.4467   -2.2836    2.8448 N   0  0  0  0  0  0  0  0  0  0  0  0
   13.6387   -2.0454    3.4180 H   0  0  0  0  0  0  0  0  0  0  0  0
   15.3897   -2.2067    3.2233 H   0  0  0  0  0  0  0  0  0  0  0  0
   15.2928   -2.7256    0.7294 N   0  0  0  0  0  4  0  0  0  0  0  0
   16.2483   -2.8630    1.0679 H   0  0  0  0  0  0  0  0  0  0  0  0
   14.1908   -5.4178   -1.4267 C   0  0  0  0  0  0  0  0  0  0  0  0
   13.2078   -5.0374   -1.6859 H   0  0  0  0  0  0  0  0  0  0  0  0
   13.8305   -8.9394   -2.6282 C   0  0  0  0  0  0  0  0  0  0  0  0
   14.8897   -9.1273   -2.7175 H   0  0  0  0  0  0  0  0  0  0  0  0
  1  2  1  0
  2  3  1  0
  3  4  2  0
  4  5  1  0
  4  6  1  0
  6  7  1  0
  7  8  1  0
  6  9  2  0
  9 10  1  0
  9 11  1  0
 11 12  1  0
 12 13  2  0
 13 14  1  0
 13 15  1  0
 15 16  1  0
 15 17  2  0
 17 18  1  0
 17 19  1  0
 19 20  1  0
 20 21  1  0
 21 22  2  0
 22 23  1  0
 22 24  1  0
 24 25  1  0
 24 26  2  0
 26 27  1  0
 26 28  1  0
 28 29  1  0
 28 30  2  0
 30 31  1  0
 20 32  1  0
 32 33  2  0
 32 34  1  0
 34 35  1  0
 35 36  1  0
 35 37  1  0
 35 38  1  0
 34 39  1  0
 39 40  1  0
 40 41  1  0
 40 42  1  0
 39 43  2  0
 43 44  1  0
 19 45  2  0
 45 46  1  0
 11 47  2  0
 47 48  1  0
 47  3  1  0
 45 12  1  0
 43 20  1  0
 30 21  1  0
M  CHG  1  43   1
M  END
>  <score>  (271) 
5.45839

$$$$

     RDKit          3D

 44 46  0  0  0  0  0  0  0  0999 V2000
   16.1173   -8.4162   -1.6843 H   0  0  0  0  0  0  0  0  0  0  0  0
   15.8718   -7.3765   -1.4914 C   0  0  0  0  0  0  0  0  0  0  0  0
   16.7674   -6.5578   -0.7959 C   0  0  0  0  0  0  0  0  0  0  0  0
   17.7133   -6.9683   -0.4506 H   0  0  0  0  0  0  0  0  0  0  0  0
   16.4403   -5.2168   -0.5459 C   0  0  0  0  0  0  0  0  0  0  0  0
   17.1464   -4.5923   -0.0054 H   0  0  0  0  0  0  0  0  0  0  0  0
   15.2096   -4.6832   -0.9738 C   0  0  0  0  0  0  0  0  0  0  0  0
   14.8192   -3.2364   -0.6794 C   0  0  0  0  0  0  0  0  0  0  0  0
   15.3994   -2.2525   -1.6869 C   0  0  0  0  0  0  0  0  0  0  0  0
   15.9343   -2.6842   -2.9107 C   0  0  0  0  0  0  0  0  0  0  0  0
   15.9783   -3.7472   -3.1283 H   0  0  0  0  0  0  0  0  0  0  0  0
   16.4012   -1.7608   -3.8519 C   0  0  0  0  0  0  0  0  0  0  0  0
   16.8205   -2.1036   -4.7922 H   0  0  0  0  0  0  0  0  0  0  0  0
   16.3343   -0.3910   -3.5820 C   0  0  0  0  0  0  0  0  0  0  0  0
   16.7138    0.3172   -4.3137 H   0  0  0  0  0  0  0  0  0  0  0  0
   15.7989    0.0730   -2.3696 C   0  0  0  0  0  0  0  0  0  0  0  0
   15.7248    1.5622   -2.0986 C   0  0  2  0  0  0  0  0  0  0  0  0
   16.1259    2.1022   -2.9643 H   0  0  0  0  0  0  0  0  0  0  0  0
   16.4984    1.9121   -0.9070 N   0  0  0  0  0  0  0  0  0  0  0  0
   16.0829    1.4812   -0.0810 H   0  0  0  0  0  0  0  0  0  0  0  0
   17.4706    1.6236   -1.0117 H   0  0  0  0  0  0  0  0  0  0  0  0
   14.2888    2.0068   -1.8569 C   0  0  0  0  0  0  0  0  0  0  0  0
   14.2625    3.0853   -1.6750 H   0  0  0  0  0  0  0  0  0  0  0  0
   13.8739    1.4954   -0.9827 H   0  0  0  0  0  0  0  0  0  0  0  0
   13.6681    1.7800   -2.7286 H   0  0  0  0  0  0  0  0  0  0  0  0
   15.3299   -0.8710   -1.4370 C   0  0  0  0  0  0  0  0  0  0  0  0
   14.8976   -0.5253   -0.5028 H   0  0  0  0  0  0  0  0  0  0  0  0
   13.2928   -3.0219   -0.5965 C   0  0  0  0  0  0  0  0  0  0  0  0
   12.4658   -3.2678   -1.4761 O   0  0  0  0  0  0  0  0  0  0  0  0
   12.9660   -2.5069    0.6444 N   0  0  0  0  0  0  0  0  0  0  0  0
   11.6235   -2.2628    1.1810 C   0  0  0  0  0  0  0  0  0  0  0  0
   11.4274   -2.9370    2.0185 H   0  0  0  0  0  0  0  0  0  0  0  0
   11.5267   -1.2375    1.5507 H   0  0  0  0  0  0  0  0  0  0  0  0
   10.8456   -2.4226    0.4251 H   0  0  0  0  0  0  0  0  0  0  0  0
   14.1322   -2.4854    1.3774 C   0  0  0  0  0  0  0  0  0  0  0  0
   14.2856   -2.1140    2.6803 N   0  0  0  0  0  0  0  0  0  0  0  0
   15.1224   -2.4311    3.1658 H   0  0  0  0  0  0  0  0  0  0  0  0
   13.4599   -1.8458    3.2126 H   0  0  0  0  0  0  0  0  0  0  0  0
   15.1644   -2.8810    0.7123 N   0  0  0  0  0  4  0  0  0  0  0  0
   16.1149   -2.8424    1.0806 H   0  0  0  0  0  0  0  0  0  0  0  0
   14.3410   -5.5142   -1.7026 C   0  0  0  0  0  0  0  0  0  0  0  0
   13.4001   -5.1217   -2.0722 H   0  0  0  0  0  0  0  0  0  0  0  0
   14.6641   -6.8510   -1.9558 C   0  0  0  0  0  0  0  0  0  0  0  0
   13.9743   -7.4803   -2.5111 H   0  0  0  0  0  0  0  0  0  0  0  0
  1  2  1  0
  2  3  2  0
  3  4  1  0
  3  5  1  0
  5  6  1  0
  5  7  2  0
  7  8  1  0
  8  9  1  0
  9 10  2  0
 10 11  1  0
 10 12  1  0
 12 13  1  0
 12 14  2  0
 14 15  1  0
 14 16  1  0
 16 17  1  0
 17 18  1  6
 17 19  1  0
 19 20  1  0
 19 21  1  0
 17 22  1  0
 22 23  1  0
 22 24  1  0
 22 25  1  0
 16 26  2  0
 26 27  1  0
  8 28  1  0
 28 29  2  0
 28 30  1  0
 30 31  1  0
 31 32  1  0
 31 33  1  0
 31 34  1  0
 30 35  1  0
 35 36  1  0
 36 37  1  0
 36 38  1  0
 35 39  2  0
 39 40  1  0
  7 41  1  0
 41 42  1  0
 41 43  2  0
 43 44  1  0
 43  2  1  0
 39  8  1  0
 26  9  1  0
M  CHG  1  39   1
M  END
>  <score>  (272) 
5.45551

$$$$

     RDKit          3D

 48 51  0  0  0  0  0  0  0  0999 V2000
   16.1257   -8.4896   -1.6110 H   0  0  0  0  0  0  0  0  0  0  0  0
   15.8539   -7.4457   -1.4699 C   0  0  0  0  0  0  0  0  0  0  0  0
   16.7268   -6.5869   -0.7991 C   0  0  0  0  0  0  0  0  0  0  0  0
   17.6754   -6.9551   -0.4192 H   0  0  0  0  0  0  0  0  0  0  0  0
   16.3860   -5.2436   -0.6086 C   0  0  0  0  0  0  0  0  0  0  0  0
   17.0691   -4.5944   -0.0690 H   0  0  0  0  0  0  0  0  0  0  0  0
   15.1669   -4.7216   -1.0719 C   0  0  0  0  0  0  0  0  0  0  0  0
   14.8105   -3.2534   -0.7858 C   0  0  0  0  0  0  0  0  0  0  0  0
   15.3914   -2.2471   -1.7818 C   0  0  0  0  0  0  0  0  0  0  0  0
   15.9489   -2.6429   -3.0084 C   0  0  0  0  0  0  0  0  0  0  0  0
   16.0071   -3.6955   -3.2676 H   0  0  0  0  0  0  0  0  0  0  0  0
   16.4230   -1.6905   -3.9188 C   0  0  0  0  0  0  0  0  0  0  0  0
   16.8530   -2.0066   -4.8641 H   0  0  0  0  0  0  0  0  0  0  0  0
   16.3320   -0.3256   -3.6276 C   0  0  0  0  0  0  0  0  0  0  0  0
   16.6811    0.4016   -4.3554 H   0  0  0  0  0  0  0  0  0  0  0  0
   15.7746    0.1082   -2.4170 C   0  0  0  0  0  0  0  0  0  0  0  0
   15.6108    1.5949   -2.1255 C   0  0  1  0  0  0  0  0  0  0  0  0
   14.6419    1.9201   -2.5060 H   0  0  0  0  0  0  0  0  0  0  0  0
   15.6804    1.9604   -0.6502 C   0  0  0  0  0  0  0  0  0  0  0  0
   14.7140    1.8237   -0.1782 H   0  0  0  0  0  0  0  0  0  0  0  0
   16.4288    1.3581   -0.1240 H   0  0  0  0  0  0  0  0  0  0  0  0
   16.0550    3.3764   -0.6151 N   0  0  0  0  0  0  0  0  0  0  0  0
   15.2442    3.9716   -0.4327 H   0  0  0  0  0  0  0  0  0  0  0  0
   16.7177    3.7549   -1.8618 C   0  0  0  0  0  0  0  0  0  0  0  0
   17.7457    4.0901   -1.6821 H   0  0  0  0  0  0  0  0  0  0  0  0
   16.1610    4.5674   -2.3369 H   0  0  0  0  0  0  0  0  0  0  0  0
   16.6871    2.4952   -2.7224 C   0  0  0  0  0  0  0  0  0  0  0  0
   16.4742    2.7405   -3.7598 H   0  0  0  0  0  0  0  0  0  0  0  0
   17.6554    1.9999   -2.6805 H   0  0  0  0  0  0  0  0  0  0  0  0
   15.3107   -0.8642   -1.5119 C   0  0  0  0  0  0  0  0  0  0  0  0
   14.8748   -0.5312   -0.5757 H   0  0  0  0  0  0  0  0  0  0  0  0
   13.2955   -3.0235   -0.6087 C   0  0  0  0  0  0  0  0  0  0  0  0
   12.4262   -3.0799   -1.4756 O   0  0  0  0  0  0  0  0  0  0  0  0
   13.0220   -2.6707    0.6990 N   0  0  0  0  0  0  0  0  0  0  0  0
   11.7192   -2.3130    1.2618 C   0  0  0  0  0  0  0  0  0  0  0  0
   11.5019   -2.9187    2.1453 H   0  0  0  0  0  0  0  0  0  0  0  0
   10.9146   -2.4754    0.5396 H   0  0  0  0  0  0  0  0  0  0  0  0
   11.6929   -1.2610    1.5592 H   0  0  0  0  0  0  0  0  0  0  0  0
   14.2235   -2.6307    1.3657 C   0  0  0  0  0  0  0  0  0  0  0  0
   14.3930   -2.3368    2.6892 N   0  0  0  0  0  0  0  0  0  0  0  0
   15.3266   -2.3568    3.0952 H   0  0  0  0  0  0  0  0  0  0  0  0
   13.5800   -2.1269    3.2657 H   0  0  0  0  0  0  0  0  0  0  0  0
   15.2194   -2.9059    0.5912 N   0  0  0  0  0  4  0  0  0  0  0  0
   16.1893   -2.9012    0.8986 H   0  0  0  0  0  0  0  0  0  0  0  0
   14.3004   -5.5958   -1.7678 C   0  0  0  0  0  0  0  0  0  0  0  0
   13.3527   -5.2446   -2.1671 H   0  0  0  0  0  0  0  0  0  0  0  0
   14.6428   -6.9468   -1.9604 C   0  0  0  0  0  0  0  0  0  0  0  0
   13.9730   -7.6202   -2.4888 H   0  0  0  0  0  0  0  0  0  0  0  0
  1  2  1  0
  2  3  2  0
  3  4  1  0
  3  5  1  0
  5  6  1  0
  5  7  2  0
  7  8  1  0
  8  9  1  0
  9 10  2  0
 10 11  1  0
 10 12  1  0
 12 13  1  0
 12 14  2  0
 14 15  1  0
 14 16  1  0
 16 17  1  0
 17 18  1  6
 17 19  1  0
 19 20  1  0
 19 21  1  0
 19 22  1  0
 22 23  1  0
 22 24  1  0
 24 25  1  0
 24 26  1  0
 24 27  1  0
 27 28  1  0
 27 29  1  0
 16 30  2  0
 30 31  1  0
  8 32  1  0
 32 33  2  0
 32 34  1  0
 34 35  1  0
 35 36  1  0
 35 37  1  0
 35 38  1  0
 34 39  1  0
 39 40  1  0
 40 41  1  0
 40 42  1  0
 39 43  2  0
 43 44  1  0
  7 45  1  0
 45 46  1  0
 45 47  2  0
 47 48  1  0
 47  2  1  0
 43  8  1  0
 30  9  1  0
 27 17  1  0
M  CHG  1  43   1
M  END
>  <score>  (273) 
5.45156

$$$$

     RDKit          3D

 46 49  0  0  0  0  0  0  0  0999 V2000
   13.7336  -11.3273   -2.8715 H   0  0  0  0  0  0  0  0  0  0  0  0
   13.5697  -10.3440   -2.4420 C   0  0  0  0  0  0  0  0  0  0  0  0
   12.3421   -9.7312   -2.2670 N   0  0  0  0  0  0  0  0  0  0  0  0
   12.6109   -8.5514   -1.7493 C   0  0  0  0  0  0  0  0  0  0  0  0
   11.5145   -7.6407   -1.2977 C   0  0  0  0  0  0  0  0  0  0  0  0
   11.2441   -6.9775   -2.1186 H   0  0  0  0  0  0  0  0  0  0  0  0
   11.8315   -7.0573   -0.4323 H   0  0  0  0  0  0  0  0  0  0  0  0
   10.6328   -8.2153   -0.9991 H   0  0  0  0  0  0  0  0  0  0  0  0
   13.9898   -8.3273   -1.6519 N   0  0  0  0  0  0  0  0  0  0  0  0
   14.7427   -7.1698   -1.3465 C   0  0  0  0  0  0  0  0  0  0  0  0
   16.1004   -7.3980   -1.0871 C   0  0  0  0  0  0  0  0  0  0  0  0
   16.4753   -8.4131   -1.1489 H   0  0  0  0  0  0  0  0  0  0  0  0
   16.9693   -6.3739   -0.7388 C   0  0  0  0  0  0  0  0  0  0  0  0
   18.0060   -6.5939   -0.4992 H   0  0  0  0  0  0  0  0  0  0  0  0
   16.4972   -5.0705   -0.6795 C   0  0  0  0  0  0  0  0  0  0  0  0
   17.1797   -4.2775   -0.3898 H   0  0  0  0  0  0  0  0  0  0  0  0
   15.1558   -4.7660   -0.9442 C   0  0  0  0  0  0  0  0  0  0  0  0
   14.7375   -3.3082   -0.7458 C   0  0  0  0  0  0  0  0  0  0  0  0
   15.3430   -2.3149   -1.7392 C   0  0  0  0  0  0  0  0  0  0  0  0
   15.9084   -2.7120   -2.9662 C   0  0  0  0  0  0  0  0  0  0  0  0
   15.9537   -3.7662   -3.2273 H   0  0  0  0  0  0  0  0  0  0  0  0
   16.4131   -1.7543   -3.8600 C   0  0  0  0  0  0  0  0  0  0  0  0
   16.8494   -2.0630   -4.8038 H   0  0  0  0  0  0  0  0  0  0  0  0
   16.3591   -0.3935   -3.5410 C   0  0  0  0  0  0  0  0  0  0  0  0
   16.7486    0.3457   -4.2351 H   0  0  0  0  0  0  0  0  0  0  0  0
   15.7982    0.0125   -2.3292 C   0  0  0  0  0  0  0  0  0  0  0  0
   15.7534    1.0657   -2.0708 H   0  0  0  0  0  0  0  0  0  0  0  0
   15.2932   -0.9404   -1.4413 C   0  0  0  0  0  0  0  0  0  0  0  0
   14.8562   -0.6144   -0.5014 H   0  0  0  0  0  0  0  0  0  0  0  0
   13.2169   -3.1117   -0.6548 C   0  0  0  0  0  0  0  0  0  0  0  0
   12.3879   -3.3547   -1.5318 O   0  0  0  0  0  0  0  0  0  0  0  0
   12.8960   -2.6283    0.6005 N   0  0  0  0  0  0  0  0  0  0  0  0
   11.5530   -2.2763    1.0623 C   0  0  0  0  0  0  0  0  0  0  0  0
   10.8187   -2.4055    0.2578 H   0  0  0  0  0  0  0  0  0  0  0  0
   11.2501   -2.9152    1.8968 H   0  0  0  0  0  0  0  0  0  0  0  0
   11.5132   -1.2317    1.3904 H   0  0  0  0  0  0  0  0  0  0  0  0
   14.0699   -2.5604    1.3337 C   0  0  0  0  0  0  0  0  0  0  0  0
   14.1972   -2.2313    2.6552 N   0  0  0  0  0  0  0  0  0  0  0  0
   15.1282   -2.2215    3.0712 H   0  0  0  0  0  0  0  0  0  0  0  0
   13.3827   -1.9861    3.2166 H   0  0  0  0  0  0  0  0  0  0  0  0
   15.1021   -2.9170    0.6360 N   0  0  0  0  0  4  0  0  0  0  0  0
   16.0624   -2.9460    0.9902 H   0  0  0  0  0  0  0  0  0  0  0  0
   14.2722   -5.8292   -1.2952 C   0  0  0  0  0  0  0  0  0  0  0  0
   13.2339   -5.6053   -1.5204 H   0  0  0  0  0  0  0  0  0  0  0  0
   14.5670   -9.5363   -2.0036 C   0  0  0  0  0  0  0  0  0  0  0  0
   15.6253   -9.7806   -1.9772 H   0  0  0  0  0  0  0  0  0  0  0  0
  1  2  1  0
  2  3  1  0
  3  4  2  0
  4  5  1  0
  5  6  1  0
  5  7  1  0
  5  8  1  0
  4  9  1  0
  9 10  1  0
 10 11  2  0
 11 12  1  0
 11 13  1  0
 13 14  1  0
 13 15  2  0
 15 16  1  0
 15 17  1  0
 17 18  1  0
 18 19  1  0
 19 20  2  0
 20 21  1  0
 20 22  1  0
 22 23  1  0
 22 24  2  0
 24 25  1  0
 24 26  1  0
 26 27  1  0
 26 28  2  0
 28 29  1  0
 18 30  1  0
 30 31  2  0
 30 32  1  0
 32 33  1  0
 33 34  1  0
 33 35  1  0
 33 36  1  0
 32 37  1  0
 37 38  1  0
 38 39  1  0
 38 40  1  0
 37 41  2  0
 41 42  1  0
 17 43  2  0
 43 44  1  0
  9 45  1  0
 45 46  1  0
 45  2  2  0
 43 10  1  0
 41 18  1  0
 28 19  1  0
M  CHG  1  41   1
M  END
>  <score>  (274) 
5.44869

$$$$

     RDKit          3D

 54 57  0  0  0  0  0  0  0  0999 V2000
   16.1088   -8.3727   -1.6660 H   0  0  0  0  0  0  0  0  0  0  0  0
   15.8702   -7.3284   -1.4758 C   0  0  0  0  0  0  0  0  0  0  0  0
   16.7640   -6.5041   -0.7811 C   0  0  0  0  0  0  0  0  0  0  0  0
   17.7067   -6.9122   -0.4235 H   0  0  0  0  0  0  0  0  0  0  0  0
   16.4454   -5.1610   -0.5382 C   0  0  0  0  0  0  0  0  0  0  0  0
   17.1449   -4.5388    0.0121 H   0  0  0  0  0  0  0  0  0  0  0  0
   15.2225   -4.6237   -0.9742 C   0  0  0  0  0  0  0  0  0  0  0  0
   14.8442   -3.1815   -0.6621 C   0  0  0  0  0  0  0  0  0  0  0  0
   15.4131   -2.1966   -1.6760 C   0  0  0  0  0  0  0  0  0  0  0  0
   15.9507   -2.6144   -2.9116 C   0  0  0  0  0  0  0  0  0  0  0  0
   16.0048   -3.6708   -3.1566 H   0  0  0  0  0  0  0  0  0  0  0  0
   16.4141   -1.6837   -3.8530 C   0  0  0  0  0  0  0  0  0  0  0  0
   16.8250   -2.0064   -4.8058 H   0  0  0  0  0  0  0  0  0  0  0  0
   16.3325   -0.3163   -3.5705 C   0  0  0  0  0  0  0  0  0  0  0  0
   16.6826    0.4292   -4.2749 H   0  0  0  0  0  0  0  0  0  0  0  0
   15.7947    0.1172   -2.3651 C   0  0  0  0  0  0  0  0  0  0  0  0
   15.7070    1.4812   -2.1139 N   0  0  0  0  0  0  0  0  0  0  0  0
   16.0545    2.1247   -2.8228 H   0  0  0  0  0  0  0  0  0  0  0  0
   15.1057    2.0294   -0.8914 C   0  0  0  0  0  0  0  0  0  0  0  0
   15.6655    1.6694   -0.0215 H   0  0  0  0  0  0  0  0  0  0  0  0
   14.0698    1.6866   -0.7938 H   0  0  0  0  0  0  0  0  0  0  0  0
   15.1432    3.5575   -0.9092 C   0  0  0  0  0  0  0  0  0  0  0  0
   16.1642    3.8843   -1.1336 H   0  0  0  0  0  0  0  0  0  0  0  0
   14.8793    3.9322    0.0842 H   0  0  0  0  0  0  0  0  0  0  0  0
   14.1791    4.1262   -1.9224 C   0  0  0  0  0  0  0  0  0  0  0  0
   12.7983    4.1022   -1.6835 C   0  0  0  0  0  0  0  0  0  0  0  0
   12.4233    3.6788   -0.7569 H   0  0  0  0  0  0  0  0  0  0  0  0
   11.9065    4.6211   -2.6297 C   0  0  0  0  0  0  0  0  0  0  0  0
   10.8388    4.6003   -2.4393 H   0  0  0  0  0  0  0  0  0  0  0  0
   12.3913    5.1647   -3.8221 C   0  0  0  0  0  0  0  0  0  0  0  0
   11.7039    5.5660   -4.5592 H   0  0  0  0  0  0  0  0  0  0  0  0
   13.7661    5.1981   -4.0630 C   0  0  0  0  0  0  0  0  0  0  0  0
   14.1323    5.6267   -4.9884 H   0  0  0  0  0  0  0  0  0  0  0  0
   14.6572    4.6826   -3.1141 C   0  0  0  0  0  0  0  0  0  0  0  0
   15.7277    4.7107   -3.2896 H   0  0  0  0  0  0  0  0  0  0  0  0
   15.3377   -0.8156   -1.4319 C   0  0  0  0  0  0  0  0  0  0  0  0
   14.9131   -0.4392   -0.5087 H   0  0  0  0  0  0  0  0  0  0  0  0
   13.3193   -2.9995   -0.5578 C   0  0  0  0  0  0  0  0  0  0  0  0
   12.5161   -3.1150   -1.4787 O   0  0  0  0  0  0  0  0  0  0  0  0
   12.9496   -2.7547    0.7493 N   0  0  0  0  0  0  0  0  0  0  0  0
   11.6205   -2.3481    1.2181 C   0  0  0  0  0  0  0  0  0  0  0  0
   11.6287   -1.2934    1.5215 H   0  0  0  0  0  0  0  0  0  0  0  0
   10.8706   -2.4605    0.4241 H   0  0  0  0  0  0  0  0  0  0  0  0
   11.3034   -2.9528    2.0786 H   0  0  0  0  0  0  0  0  0  0  0  0
   14.1275   -2.6647    1.4627 C   0  0  0  0  0  0  0  0  0  0  0  0
   14.2618   -2.4540    2.7992 N   0  0  0  0  0  0  0  0  0  0  0  0
   15.1882   -2.1794    3.1257 H   0  0  0  0  0  0  0  0  0  0  0  0
   13.4354   -2.1978    3.3394 H   0  0  0  0  0  0  0  0  0  0  0  0
   15.1835   -2.8526    0.7394 N   0  0  0  0  0  4  0  0  0  0  0  0
   16.1042   -3.0340    1.1419 H   0  0  0  0  0  0  0  0  0  0  0  0
   14.3511   -5.4545   -1.7007 C   0  0  0  0  0  0  0  0  0  0  0  0
   13.4066   -5.0567   -2.0592 H   0  0  0  0  0  0  0  0  0  0  0  0
   14.6623   -6.7978   -1.9456 C   0  0  0  0  0  0  0  0  0  0  0  0
   13.9605   -7.4215   -2.4944 H   0  0  0  0  0  0  0  0  0  0  0  0
  1  2  1  0
  2  3  2  0
  3  4  1  0
  3  5  1  0
  5  6  1  0
  5  7  2  0
  7  8  1  0
  8  9  1  0
  9 10  2  0
 10 11  1  0
 10 12  1  0
 12 13  1  0
 12 14  2  0
 14 15  1  0
 14 16  1  0
 16 17  1  0
 17 18  1  0
 17 19  1  0
 19 20  1  0
 19 21  1  0
 19 22  1  0
 22 23  1  0
 22 24  1  0
 22 25  1  0
 25 26  2  0
 26 27  1  0
 26 28  1  0
 28 29  1  0
 28 30  2  0
 30 31  1  0
 30 32  1  0
 32 33  1  0
 32 34  2  0
 34 35  1  0
 16 36  2  0
 36 37  1  0
  8 38  1  0
 38 39  2  0
 38 40  1  0
 40 41  1  0
 41 42  1  0
 41 43  1  0
 41 44  1  0
 40 45  1  0
 45 46  1  0
 46 47  1  0
 46 48  1  0
 45 49  2  0
 49 50  1  0
  7 51  1  0
 51 52  1  0
 51 53  2  0
 53 54  1  0
 53  2  1  0
 49  8  1  0
 36  9  1  0
 34 25  1  0
M  CHG  1  49   1
M  END
>  <score>  (275) 
5.44821

$$$$

     RDKit          3D

 47 50  0  0  0  0  0  0  0  0999 V2000
   15.2695  -12.0596    0.2028 H   0  0  0  0  0  0  0  0  0  0  0  0
   14.8310  -11.1716   -0.2420 C   0  0  0  0  0  0  0  0  0  0  0  0
   14.5230  -11.1396   -1.6066 C   0  0  0  0  0  0  0  0  0  0  0  0
   14.7741  -11.9702   -2.2428 H   0  0  0  0  0  0  0  0  0  0  0  0
   13.9949   -9.9929   -2.2001 C   0  0  0  0  0  0  0  0  0  0  0  0
   13.8357   -9.9281   -3.2746 H   0  0  0  0  0  0  0  0  0  0  0  0
   13.7749   -8.8622   -1.4259 C   0  0  0  0  0  0  0  0  0  0  0  0
   13.5611   -7.6540   -2.0395 O   0  0  0  0  0  0  0  0  0  0  0  0
   14.5490   -6.7602   -1.6858 C   0  0  0  0  0  0  0  0  0  0  0  0
   15.8507   -7.2102   -1.4076 C   0  0  0  0  0  0  0  0  0  0  0  0
   16.0569   -8.2670   -1.5376 H   0  0  0  0  0  0  0  0  0  0  0  0
   16.8306   -6.3596   -0.9057 C   0  0  0  0  0  0  0  0  0  0  0  0
   17.8195   -6.7481   -0.6730 H   0  0  0  0  0  0  0  0  0  0  0  0
   16.5077   -5.0240   -0.6628 C   0  0  0  0  0  0  0  0  0  0  0  0
   17.2576   -4.3614   -0.2400 H   0  0  0  0  0  0  0  0  0  0  0  0
   15.2153   -4.5431   -0.9275 C   0  0  0  0  0  0  0  0  0  0  0  0
   14.8501   -3.1064   -0.6263 C   0  0  0  0  0  0  0  0  0  0  0  0
   15.4148   -2.1498   -1.6620 C   0  0  0  0  0  0  0  0  0  0  0  0
   15.9315   -2.6052   -2.8897 C   0  0  0  0  0  0  0  0  0  0  0  0
   15.9567   -3.6723   -3.0960 H   0  0  0  0  0  0  0  0  0  0  0  0
   16.4042   -1.6984   -3.8434 C   0  0  0  0  0  0  0  0  0  0  0  0
   16.8073   -2.0626   -4.7825 H   0  0  0  0  0  0  0  0  0  0  0  0
   16.3587   -0.3263   -3.5847 C   0  0  0  0  0  0  0  0  0  0  0  0
   16.7379    0.3729   -4.3229 H   0  0  0  0  0  0  0  0  0  0  0  0
   15.8305    0.1375   -2.3762 C   0  0  0  0  0  0  0  0  0  0  0  0
   15.7900    1.2030   -2.1761 H   0  0  0  0  0  0  0  0  0  0  0  0
   15.3587   -0.7690   -1.4240 C   0  0  0  0  0  0  0  0  0  0  0  0
   14.9406   -0.3973   -0.4918 H   0  0  0  0  0  0  0  0  0  0  0  0
   13.3274   -2.9280   -0.5148 C   0  0  0  0  0  0  0  0  0  0  0  0
   12.4831   -3.1541   -1.3783 O   0  0  0  0  0  0  0  0  0  0  0  0
   13.0049   -2.5113    0.7602 N   0  0  0  0  0  0  0  0  0  0  0  0
   11.6518   -2.2578    1.2506 C   0  0  0  0  0  0  0  0  0  0  0  0
   11.5468   -1.2214    1.5836 H   0  0  0  0  0  0  0  0  0  0  0  0
   10.9146   -2.4308    0.4583 H   0  0  0  0  0  0  0  0  0  0  0  0
   11.4033   -2.9197    2.0861 H   0  0  0  0  0  0  0  0  0  0  0  0
   14.1873   -2.3998    1.4618 C   0  0  0  0  0  0  0  0  0  0  0  0
   14.3254   -2.0213    2.7626 N   0  0  0  0  0  0  0  0  0  0  0  0
   15.2477   -2.1251    3.1846 H   0  0  0  0  0  0  0  0  0  0  0  0
   13.4971   -2.0512    3.3542 H   0  0  0  0  0  0  0  0  0  0  0  0
   15.2187   -2.7370    0.7588 N   0  0  0  0  0  4  0  0  0  0  0  0
   16.1616   -2.8282    1.1424 H   0  0  0  0  0  0  0  0  0  0  0  0
   14.2525   -5.4184   -1.4674 C   0  0  0  0  0  0  0  0  0  0  0  0
   13.2386   -5.0947   -1.6696 H   0  0  0  0  0  0  0  0  0  0  0  0
   14.0370   -8.9071   -0.0444 C   0  0  0  0  0  0  0  0  0  0  0  0
   13.9088   -7.9925    0.5268 H   0  0  0  0  0  0  0  0  0  0  0  0
   14.5927  -10.0452    0.5441 C   0  0  0  0  0  0  0  0  0  0  0  0
   14.8796  -10.0470    1.5925 H   0  0  0  0  0  0  0  0  0  0  0  0
  1  2  1  0
  2  3  2  0
  3  4  1  0
  3  5  1  0
  5  6  1  0
  5  7  2  0
  7  8  1  0
  8  9  1  0
  9 10  2  0
 10 11  1  0
 10 12  1  0
 12 13  1  0
 12 14  2  0
 14 15  1  0
 14 16  1  0
 16 17  1  0
 17 18  1  0
 18 19  2  0
 19 20  1  0
 19 21  1  0
 21 22  1  0
 21 23  2  0
 23 24  1  0
 23 25  1  0
 25 26  1  0
 25 27  2  0
 27 28  1  0
 17 29  1  0
 29 30  2  0
 29 31  1  0
 31 32  1  0
 32 33  1  0
 32 34  1  0
 32 35  1  0
 31 36  1  0
 36 37  1  0
 37 38  1  0
 37 39  1  0
 36 40  2  0
 40 41  1  0
 16 42  2  0
 42 43  1  0
  7 44  1  0
 44 45  1  0
 44 46  2  0
 46 47  1  0
 46  2  1  0
 42  9  1  0
 40 17  1  0
 27 18  1  0
M  CHG  1  40   1
M  END
>  <score>  (276) 
5.44582

$$$$

     RDKit          3D

 57 59  0  0  0  0  0  0  0  0999 V2000
   16.1034   -8.4669   -1.6149 H   0  0  0  0  0  0  0  0  0  0  0  0
   15.8590   -7.4170   -1.4828 C   0  0  0  0  0  0  0  0  0  0  0  0
   16.7398   -6.5695   -0.8053 C   0  0  0  0  0  0  0  0  0  0  0  0
   17.6721   -6.9596   -0.4105 H   0  0  0  0  0  0  0  0  0  0  0  0
   16.4072   -5.2245   -0.6080 C   0  0  0  0  0  0  0  0  0  0  0  0
   17.0747   -4.5704   -0.0540 H   0  0  0  0  0  0  0  0  0  0  0  0
   15.1904   -4.7035   -1.0738 C   0  0  0  0  0  0  0  0  0  0  0  0
   14.8253   -3.2491   -0.7718 C   0  0  0  0  0  0  0  0  0  0  0  0
   15.3887   -2.2426   -1.7743 C   0  0  0  0  0  0  0  0  0  0  0  0
   15.9430   -2.6437   -3.0015 C   0  0  0  0  0  0  0  0  0  0  0  0
   15.9959   -3.7033   -3.2354 H   0  0  0  0  0  0  0  0  0  0  0  0
   16.4184   -1.6940   -3.9165 C   0  0  0  0  0  0  0  0  0  0  0  0
   16.8476   -2.0094   -4.8607 H   0  0  0  0  0  0  0  0  0  0  0  0
   16.3323   -0.3295   -3.6213 C   0  0  0  0  0  0  0  0  0  0  0  0
   16.7059    0.4073   -4.3256 H   0  0  0  0  0  0  0  0  0  0  0  0
   15.7712    0.0950   -2.4140 C   0  0  0  0  0  0  0  0  0  0  0  0
   15.6556    1.5659   -2.1035 C   0  0  0  0  0  0  0  0  0  0  0  0
   16.4476    2.1127   -2.6278 H   0  0  0  0  0  0  0  0  0  0  0  0
   15.7903    1.7200   -1.0273 H   0  0  0  0  0  0  0  0  0  0  0  0
   14.2813    2.0918   -2.5390 C   0  0  0  0  0  0  0  0  0  0  0  0
   14.1561    1.9362   -3.6181 H   0  0  0  0  0  0  0  0  0  0  0  0
   13.4967    1.5338   -2.0139 H   0  0  0  0  0  0  0  0  0  0  0  0
   14.1186    3.5811   -2.2288 C   0  0  0  0  0  0  0  0  0  0  0  0
   14.2519    3.7598   -1.1529 H   0  0  0  0  0  0  0  0  0  0  0  0
   14.8940    4.1584   -2.7518 H   0  0  0  0  0  0  0  0  0  0  0  0
   12.7179    4.0443   -2.6830 C   0  0  0  0  0  0  0  0  0  0  0  0
   12.6003    3.8743   -3.7604 H   0  0  0  0  0  0  0  0  0  0  0  0
   11.9292    3.4977   -2.1466 H   0  0  0  0  0  0  0  0  0  0  0  0
   12.6086    5.5335   -2.4197 C   0  0  0  0  0  0  0  0  0  0  0  0
   12.7570    5.7014   -1.3504 H   0  0  0  0  0  0  0  0  0  0  0  0
   13.4298    5.9849   -2.9798 H   0  0  0  0  0  0  0  0  0  0  0  0
   11.2861    6.1709   -2.8848 C   0  0  0  0  0  0  0  0  0  0  0  0
   11.3563    7.2576   -2.7651 H   0  0  0  0  0  0  0  0  0  0  0  0
   11.1393    5.9605   -3.9503 H   0  0  0  0  0  0  0  0  0  0  0  0
   10.0694    5.6755   -2.0984 C   0  0  0  0  0  0  0  0  0  0  0  0
    9.1626    6.1963   -2.4325 H   0  0  0  0  0  0  0  0  0  0  0  0
    9.9354    4.6008   -2.2565 H   0  0  0  0  0  0  0  0  0  0  0  0
   10.1990    5.8645   -1.0278 H   0  0  0  0  0  0  0  0  0  0  0  0
   15.3093   -0.8631   -1.5009 C   0  0  0  0  0  0  0  0  0  0  0  0
   14.8783   -0.5294   -0.5619 H   0  0  0  0  0  0  0  0  0  0  0  0
   13.3043   -3.0471   -0.5924 C   0  0  0  0  0  0  0  0  0  0  0  0
   12.4439   -3.1205   -1.4650 O   0  0  0  0  0  0  0  0  0  0  0  0
   13.0261   -2.6856    0.7112 N   0  0  0  0  0  0  0  0  0  0  0  0
   11.7211   -2.3144    1.2714 C   0  0  0  0  0  0  0  0  0  0  0  0
   10.9161   -2.4762    0.5433 H   0  0  0  0  0  0  0  0  0  0  0  0
   11.7107   -1.2553    1.5583 H   0  0  0  0  0  0  0  0  0  0  0  0
   11.5049   -2.9198    2.1605 H   0  0  0  0  0  0  0  0  0  0  0  0
   14.2365   -2.6230    1.3662 C   0  0  0  0  0  0  0  0  0  0  0  0
   14.4072   -2.3055    2.6762 N   0  0  0  0  0  0  0  0  0  0  0  0
   15.3441   -2.3382    3.0799 H   0  0  0  0  0  0  0  0  0  0  0  0
   13.5940   -2.1259    3.2601 H   0  0  0  0  0  0  0  0  0  0  0  0
   15.2417   -2.9077    0.6063 N   0  0  0  0  0  4  0  0  0  0  0  0
   16.2081   -2.9583    0.9378 H   0  0  0  0  0  0  0  0  0  0  0  0
   14.3158   -5.5649   -1.7664 C   0  0  0  0  0  0  0  0  0  0  0  0
   13.3614   -5.1877   -2.1225 H   0  0  0  0  0  0  0  0  0  0  0  0
   14.6480   -6.9144   -1.9674 C   0  0  0  0  0  0  0  0  0  0  0  0
   13.9625   -7.5781   -2.4868 H   0  0  0  0  0  0  0  0  0  0  0  0
  1  2  1  0
  2  3  2  0
  3  4  1  0
  3  5  1  0
  5  6  1  0
  5  7  2  0
  7  8  1  0
  8  9  1  0
  9 10  2  0
 10 11  1  0
 10 12  1  0
 12 13  1  0
 12 14  2  0
 14 15  1  0
 14 16  1  0
 16 17  1  0
 17 18  1  0
 17 19  1  0
 17 20  1  0
 20 21  1  0
 20 22  1  0
 20 23  1  0
 23 24  1  0
 23 25  1  0
 23 26  1  0
 26 27  1  0
 26 28  1  0
 26 29  1  0
 29 30  1  0
 29 31  1  0
 29 32  1  0
 32 33  1  0
 32 34  1  0
 32 35  1  0
 35 36  1  0
 35 37  1  0
 35 38  1  0
 16 39  2  0
 39 40  1  0
  8 41  1  0
 41 42  2  0
 41 43  1  0
 43 44  1  0
 44 45  1  0
 44 46  1  0
 44 47  1  0
 43 48  1  0
 48 49  1  0
 49 50  1  0
 49 51  1  0
 48 52  2  0
 52 53  1  0
  7 54  1  0
 54 55  1  0
 54 56  2  0
 56 57  1  0
 56  2  1  0
 52  8  1  0
 39  9  1  0
M  CHG  1  52   1
M  END
>  <score>  (277) 
5.44398

$$$$

     RDKit          3D

 46 48  0  0  0  0  0  0  0  0999 V2000
   16.1084   -8.4706   -1.6146 H   0  0  0  0  0  0  0  0  0  0  0  0
   15.8583   -7.4221   -1.4797 C   0  0  0  0  0  0  0  0  0  0  0  0
   16.7365   -6.5733   -0.8022 C   0  0  0  0  0  0  0  0  0  0  0  0
   17.6741   -6.9585   -0.4137 H   0  0  0  0  0  0  0  0  0  0  0  0
   16.3999   -5.2294   -0.6071 C   0  0  0  0  0  0  0  0  0  0  0  0
   17.0764   -4.5786   -0.0607 H   0  0  0  0  0  0  0  0  0  0  0  0
   15.1815   -4.7083   -1.0717 C   0  0  0  0  0  0  0  0  0  0  0  0
   14.8210   -3.2486   -0.7686 C   0  0  0  0  0  0  0  0  0  0  0  0
   15.3842   -2.2408   -1.7716 C   0  0  0  0  0  0  0  0  0  0  0  0
   15.9377   -2.6369   -3.0033 C   0  0  0  0  0  0  0  0  0  0  0  0
   15.9930   -3.6948   -3.2446 H   0  0  0  0  0  0  0  0  0  0  0  0
   16.4196   -1.6886   -3.9213 C   0  0  0  0  0  0  0  0  0  0  0  0
   16.8520   -2.0041   -4.8685 H   0  0  0  0  0  0  0  0  0  0  0  0
   16.3374   -0.3221   -3.6150 C   0  0  0  0  0  0  0  0  0  0  0  0
   16.6985    0.4460   -4.2878 H   0  0  0  0  0  0  0  0  0  0  0  0
   15.7846    0.0865   -2.4090 C   0  0  0  0  0  0  0  0  0  0  0  0
   15.6768    1.4234   -2.0697 N   0  0  0  0  0  0  0  0  0  0  0  0
   15.2888    1.6005   -1.1441 H   0  0  0  0  0  0  0  0  0  0  0  0
   16.1355    2.5553   -2.9232 C   0  0  0  0  0  0  0  0  0  0  0  0
   17.2048    2.4461   -3.1316 H   0  0  0  0  0  0  0  0  0  0  0  0
   15.6041    2.5235   -3.8819 H   0  0  0  0  0  0  0  0  0  0  0  0
   15.8956    3.9381   -2.2598 C   0  0  0  0  0  0  0  0  0  0  0  0
   14.8349    4.0355   -2.0251 H   0  0  0  0  0  0  0  0  0  0  0  0
   16.4473    3.9756   -1.3170 H   0  0  0  0  0  0  0  0  0  0  0  0
   16.3137    5.0986   -3.0838 N   0  0  0  0  0  0  0  0  0  0  0  0
   15.7954    5.1612   -3.9560 H   0  0  0  0  0  0  0  0  0  0  0  0
   16.2481    5.9766   -2.5788 H   0  0  0  0  0  0  0  0  0  0  0  0
   15.3137   -0.8577   -1.5029 C   0  0  0  0  0  0  0  0  0  0  0  0
   14.8885   -0.4972   -0.5731 H   0  0  0  0  0  0  0  0  0  0  0  0
   13.3041   -3.0275   -0.6005 C   0  0  0  0  0  0  0  0  0  0  0  0
   12.4449   -3.1096   -1.4757 O   0  0  0  0  0  0  0  0  0  0  0  0
   13.0260   -2.6747    0.7063 N   0  0  0  0  0  0  0  0  0  0  0  0
   11.7216   -2.3130    1.2689 C   0  0  0  0  0  0  0  0  0  0  0  0
   10.9203   -2.4773    0.5382 H   0  0  0  0  0  0  0  0  0  0  0  0
   11.7087   -1.2544    1.5581 H   0  0  0  0  0  0  0  0  0  0  0  0
   11.5054   -2.9232    2.1554 H   0  0  0  0  0  0  0  0  0  0  0  0
   14.2349   -2.6264    1.3717 C   0  0  0  0  0  0  0  0  0  0  0  0
   14.4028   -2.3121    2.6841 N   0  0  0  0  0  0  0  0  0  0  0  0
   15.3387   -2.3420    3.0886 H   0  0  0  0  0  0  0  0  0  0  0  0
   13.5906   -2.1244    3.2675 H   0  0  0  0  0  0  0  0  0  0  0  0
   15.2402   -2.9171    0.6131 N   0  0  0  0  0  4  0  0  0  0  0  0
   16.2120   -2.9411    0.9361 H   0  0  0  0  0  0  0  0  0  0  0  0
   14.3113   -5.5723   -1.7684 C   0  0  0  0  0  0  0  0  0  0  0  0
   13.3589   -5.2008   -2.1351 H   0  0  0  0  0  0  0  0  0  0  0  0
   14.6471   -6.9221   -1.9662 C   0  0  0  0  0  0  0  0  0  0  0  0
   13.9638   -7.5869   -2.4872 H   0  0  0  0  0  0  0  0  0  0  0  0
  1  2  1  0
  2  3  2  0
  3  4  1  0
  3  5  1  0
  5  6  1  0
  5  7  2  0
  7  8  1  0
  8  9  1  0
  9 10  2  0
 10 11  1  0
 10 12  1  0
 12 13  1  0
 12 14  2  0
 14 15  1  0
 14 16  1  0
 16 17  1  0
 17 18  1  0
 17 19  1  0
 19 20  1  0
 19 21  1  0
 19 22  1  0
 22 23  1  0
 22 24  1  0
 22 25  1  0
 25 26  1  0
 25 27  1  0
 16 28  2  0
 28 29  1  0
  8 30  1  0
 30 31  2  0
 30 32  1  0
 32 33  1  0
 33 34  1  0
 33 35  1  0
 33 36  1  0
 32 37  1  0
 37 38  1  0
 38 39  1  0
 38 40  1  0
 37 41  2  0
 41 42  1  0
  7 43  1  0
 43 44  1  0
 43 45  2  0
 45 46  1  0
 45  2  1  0
 41  8  1  0
 28  9  1  0
M  CHG  1  41   1
M  END
>  <score>  (278) 
5.44285

$$$$

     RDKit          3D

 45 48  0  0  0  0  0  0  0  0999 V2000
   13.5984   -7.4058   -3.6253 H   0  0  0  0  0  0  0  0  0  0  0  0
   13.8669   -7.7650   -2.6393 C   0  0  0  0  0  0  0  0  0  0  0  0
   13.2622   -8.9099   -2.1481 C   0  0  0  0  0  0  0  0  0  0  0  0
   11.9794   -9.7028   -3.0398 S   0  0  0  0  0  0  0  0  0  0  0  0
   11.7954  -10.8608   -1.7341 C   0  0  0  0  0  0  0  0  0  0  0  0
   10.4982  -11.8937   -1.6298 S   0  0  0  0  0  0  0  0  0  0  0  0
   12.7288  -10.7303   -0.7182 N   0  0  0  0  0  0  0  0  0  0  0  0
   12.5092  -11.0019    0.2364 H   0  0  0  0  0  0  0  0  0  0  0  0
   13.4853   -9.6021   -0.8782 C   0  0  0  0  0  0  0  0  0  0  0  0
   14.1898   -9.2495    0.0501 O   0  0  0  0  0  0  0  0  0  0  0  0
   14.7910   -6.9090   -1.8991 C   0  0  0  0  0  0  0  0  0  0  0  0
   15.9865   -7.3911   -1.3541 C   0  0  0  0  0  0  0  0  0  0  0  0
   16.2433   -8.4397   -1.4646 H   0  0  0  0  0  0  0  0  0  0  0  0
   16.8505   -6.5208   -0.6792 C   0  0  0  0  0  0  0  0  0  0  0  0
   17.7840   -6.8909   -0.2661 H   0  0  0  0  0  0  0  0  0  0  0  0
   16.5028   -5.1768   -0.5135 C   0  0  0  0  0  0  0  0  0  0  0  0
   17.1765   -4.5130    0.0212 H   0  0  0  0  0  0  0  0  0  0  0  0
   15.2831   -4.6843   -1.0059 C   0  0  0  0  0  0  0  0  0  0  0  0
   14.8574   -3.2474   -0.7288 C   0  0  0  0  0  0  0  0  0  0  0  0
   15.3984   -2.2544   -1.7460 C   0  0  0  0  0  0  0  0  0  0  0  0
   15.9366   -2.6656   -2.9784 C   0  0  0  0  0  0  0  0  0  0  0  0
   15.9892   -3.7217   -3.2272 H   0  0  0  0  0  0  0  0  0  0  0  0
   16.4102   -1.7230   -3.8975 C   0  0  0  0  0  0  0  0  0  0  0  0
   16.8264   -2.0499   -4.8432 H   0  0  0  0  0  0  0  0  0  0  0  0
   16.3493   -0.3580   -3.6042 C   0  0  0  0  0  0  0  0  0  0  0  0
   16.7277    0.3687   -4.3174 H   0  0  0  0  0  0  0  0  0  0  0  0
   15.7972    0.0654   -2.3928 C   0  0  0  0  0  0  0  0  0  0  0  0
   15.7376    1.1245   -2.1594 H   0  0  0  0  0  0  0  0  0  0  0  0
   15.3193   -0.8766   -1.4768 C   0  0  0  0  0  0  0  0  0  0  0  0
   14.8837   -0.5348   -0.5419 H   0  0  0  0  0  0  0  0  0  0  0  0
   13.3326   -3.0658   -0.5587 C   0  0  0  0  0  0  0  0  0  0  0  0
   12.4682   -3.2083   -1.4229 O   0  0  0  0  0  0  0  0  0  0  0  0
   13.0558   -2.6739    0.7375 N   0  0  0  0  0  0  0  0  0  0  0  0
   11.7497   -2.3111    1.2905 C   0  0  0  0  0  0  0  0  0  0  0  0
   10.9516   -2.4813    0.5575 H   0  0  0  0  0  0  0  0  0  0  0  0
   11.5266   -2.9098    2.1818 H   0  0  0  0  0  0  0  0  0  0  0  0
   11.7384   -1.2513    1.5705 H   0  0  0  0  0  0  0  0  0  0  0  0
   14.2608   -2.5845    1.3984 C   0  0  0  0  0  0  0  0  0  0  0  0
   14.4404   -2.2358    2.7049 N   0  0  0  0  0  0  0  0  0  0  0  0
   13.6291   -2.1163    3.3091 H   0  0  0  0  0  0  0  0  0  0  0  0
   15.3759   -2.2964    3.1054 H   0  0  0  0  0  0  0  0  0  0  0  0
   15.2645   -2.8833    0.6432 N   0  0  0  0  0  4  0  0  0  0  0  0
   16.2204   -2.9755    0.9886 H   0  0  0  0  0  0  0  0  0  0  0  0
   14.4562   -5.5543   -1.7346 C   0  0  0  0  0  0  0  0  0  0  0  0
   13.5192   -5.1819   -2.1409 H   0  0  0  0  0  0  0  0  0  0  0  0
  1  2  1  0
  2  3  2  3
  3  4  1  0
  4  5  1  0
  5  6  2  0
  5  7  1  0
  7  8  1  0
  7  9  1  0
  9 10  2  0
  2 11  1  0
 11 12  2  0
 12 13  1  0
 12 14  1  0
 14 15  1  0
 14 16  2  0
 16 17  1  0
 16 18  1  0
 18 19  1  0
 19 20  1  0
 20 21  2  0
 21 22  1  0
 21 23  1  0
 23 24  1  0
 23 25  2  0
 25 26  1  0
 25 27  1  0
 27 28  1  0
 27 29  2  0
 29 30  1  0
 19 31  1  0
 31 32  2  0
 31 33  1  0
 33 34  1  0
 34 35  1  0
 34 36  1  0
 34 37  1  0
 33 38  1  0
 38 39  1  0
 39 40  1  0
 39 41  1  0
 38 42  2  0
 42 43  1  0
 18 44  2  0
 44 45  1  0
  9  3  1  0
 44 11  1  0
 42 19  1  0
 29 20  1  0
M  CHG  1  42   1
M  END
>  <score>  (279) 
5.44141

$$$$

     RDKit          3D

 46 48  0  0  0  0  0  0  0  0999 V2000
   16.1071   -8.4327   -1.6997 H   0  0  0  0  0  0  0  0  0  0  0  0
   15.8708   -7.3906   -1.5091 C   0  0  0  0  0  0  0  0  0  0  0  0
   16.7802   -6.5853   -0.8099 C   0  0  0  0  0  0  0  0  0  0  0  0
   17.7319   -6.9819   -0.4695 H   0  0  0  0  0  0  0  0  0  0  0  0
   16.4674   -5.2516   -0.5462 C   0  0  0  0  0  0  0  0  0  0  0  0
   17.1739   -4.6131   -0.0223 H   0  0  0  0  0  0  0  0  0  0  0  0
   15.2383   -4.7235   -0.9551 C   0  0  0  0  0  0  0  0  0  0  0  0
   14.8823   -3.2947   -0.6495 C   0  0  0  0  0  0  0  0  0  0  0  0
   15.4322   -2.3521   -1.6974 C   0  0  0  0  0  0  0  0  0  0  0  0
   15.9243   -2.7821   -2.9483 C   0  0  0  0  0  0  0  0  0  0  0  0
   15.9682   -3.8411   -3.1835 H   0  0  0  0  0  0  0  0  0  0  0  0
   16.3516   -1.8538   -3.9052 C   0  0  0  0  0  0  0  0  0  0  0  0
   16.7289   -2.1869   -4.8705 H   0  0  0  0  0  0  0  0  0  0  0  0
   16.2885   -0.4882   -3.6123 C   0  0  0  0  0  0  0  0  0  0  0  0
   16.6177    0.2514   -4.3329 H   0  0  0  0  0  0  0  0  0  0  0  0
   15.8032   -0.0542   -2.3795 C   0  0  0  0  0  0  0  0  0  0  0  0
   15.7007    1.2932   -2.0798 N   0  0  0  0  0  0  0  0  0  0  0  0
   15.5734    1.5507   -1.1074 H   0  0  0  0  0  0  0  0  0  0  0  0
   15.4606    2.2638   -3.0201 C   0  0  0  0  0  0  0  0  0  0  0  0
   15.4093    1.9943   -4.2112 O   0  0  0  0  0  0  0  0  0  0  0  0
   15.3263    3.6994   -2.5413 C   0  0  0  0  0  0  0  0  0  0  0  0
   14.9265    4.3375   -3.3293 H   0  0  0  0  0  0  0  0  0  0  0  0
   14.6211    3.7497   -1.7166 H   0  0  0  0  0  0  0  0  0  0  0  0
   16.6889    4.2001   -2.0692 C   0  0  0  0  0  0  0  0  0  0  0  0
   17.1039    3.5376   -1.3029 H   0  0  0  0  0  0  0  0  0  0  0  0
   16.6033    5.1960   -1.6355 H   0  0  0  0  0  0  0  0  0  0  0  0
   17.3895    4.2385   -2.9071 H   0  0  0  0  0  0  0  0  0  0  0  0
   15.3784   -0.9791   -1.4364 C   0  0  0  0  0  0  0  0  0  0  0  0
   14.9802   -0.6382   -0.4853 H   0  0  0  0  0  0  0  0  0  0  0  0
   13.3667   -3.0651   -0.4980 C   0  0  0  0  0  0  0  0  0  0  0  0
   12.4942   -3.2271   -1.3521 O   0  0  0  0  0  0  0  0  0  0  0  0
   13.0976   -2.6236    0.7788 N   0  0  0  0  0  0  0  0  0  0  0  0
   11.7803   -2.2851    1.3194 C   0  0  0  0  0  0  0  0  0  0  0  0
   10.9942   -2.4729    0.5781 H   0  0  0  0  0  0  0  0  0  0  0  0
   11.7324   -1.2266    1.5937 H   0  0  0  0  0  0  0  0  0  0  0  0
   11.5573   -2.8909    2.2034 H   0  0  0  0  0  0  0  0  0  0  0  0
   14.2981   -2.5607    1.4529 C   0  0  0  0  0  0  0  0  0  0  0  0
   14.4749   -2.1723    2.7464 N   0  0  0  0  0  0  0  0  0  0  0  0
   13.6605   -2.0943    3.3531 H   0  0  0  0  0  0  0  0  0  0  0  0
   15.4028   -2.2812    3.1528 H   0  0  0  0  0  0  0  0  0  0  0  0
   15.2991   -2.9234    0.7218 N   0  0  0  0  0  4  0  0  0  0  0  0
   16.2568   -3.0058    1.0676 H   0  0  0  0  0  0  0  0  0  0  0  0
   14.3555   -5.5164   -1.6982 C   0  0  0  0  0  0  0  0  0  0  0  0
   13.4267   -5.0913   -2.0671 H   0  0  0  0  0  0  0  0  0  0  0  0
   14.6637   -6.8489   -1.9688 C   0  0  0  0  0  0  0  0  0  0  0  0
   13.9617   -7.4555   -2.5332 H   0  0  0  0  0  0  0  0  0  0  0  0
  1  2  1  0
  2  3  2  0
  3  4  1  0
  3  5  1  0
  5  6  1  0
  5  7  2  0
  7  8  1  0
  8  9  1  0
  9 10  2  0
 10 11  1  0
 10 12  1  0
 12 13  1  0
 12 14  2  0
 14 15  1  0
 14 16  1  0
 16 17  1  0
 17 18  1  0
 17 19  1  0
 19 20  2  0
 19 21  1  0
 21 22  1  0
 21 23  1  0
 21 24  1  0
 24 25  1  0
 24 26  1  0
 24 27  1  0
 16 28  2  0
 28 29  1  0
  8 30  1  0
 30 31  2  0
 30 32  1  0
 32 33  1  0
 33 34  1  0
 33 35  1  0
 33 36  1  0
 32 37  1  0
 37 38  1  0
 38 39  1  0
 38 40  1  0
 37 41  2  0
 41 42  1  0
  7 43  1  0
 43 44  1  0
 43 45  2  0
 45 46  1  0
 45  2  1  0
 41  8  1  0
 28  9  1  0
M  CHG  1  41   1
M  END
>  <score>  (280) 
5.43414

$$$$

     RDKit          3D

 43 45  0  0  0  0  0  0  0  0999 V2000
   16.1038   -8.4296   -1.8720 H   0  0  0  0  0  0  0  0  0  0  0  0
   15.8560   -7.3991   -1.6342 C   0  0  0  0  0  0  0  0  0  0  0  0
   16.7678   -6.6064   -0.9271 C   0  0  0  0  0  0  0  0  0  0  0  0
   17.7270   -7.0128   -0.6217 H   0  0  0  0  0  0  0  0  0  0  0  0
   16.4417   -5.2843   -0.6000 C   0  0  0  0  0  0  0  0  0  0  0  0
   17.1514   -4.6689   -0.0495 H   0  0  0  0  0  0  0  0  0  0  0  0
   15.1980   -4.7457   -0.9686 C   0  0  0  0  0  0  0  0  0  0  0  0
   14.8263   -3.3127   -0.6132 C   0  0  0  0  0  0  0  0  0  0  0  0
   15.3429   -2.2954   -1.6268 C   0  0  0  0  0  0  0  0  0  0  0  0
   15.9356   -2.6991   -2.8379 C   0  0  0  0  0  0  0  0  0  0  0  0
   16.0607   -3.7602   -3.0348 H   0  0  0  0  0  0  0  0  0  0  0  0
   16.3543   -1.7560   -3.7896 C   0  0  0  0  0  0  0  0  0  0  0  0
   16.8039   -2.0737   -4.7293 H   0  0  0  0  0  0  0  0  0  0  0  0
   16.1963   -0.3889   -3.5200 C   0  0  0  0  0  0  0  0  0  0  0  0
   16.4966    0.3778   -4.2218 H   0  0  0  0  0  0  0  0  0  0  0  0
   15.6055    0.0270   -2.3349 C   0  0  0  0  0  0  0  0  0  0  0  0
   15.4534    1.3544   -2.0257 N   0  0  0  0  0  0  0  0  0  0  0  0
   15.2683    1.5129   -1.0477 H   0  0  0  0  0  0  0  0  0  0  0  0
   16.6897    2.3670   -2.4345 S   0  0  0  0  0  0  0  0  0  0  0  0
   16.1790    3.5674   -3.0760 O   0  0  0  0  0  0  0  0  0  0  0  0
   17.5273    2.7028   -1.2925 O   0  0  0  0  0  0  0  0  0  0  0  0
   15.6061    2.9426   -1.4321 N   0  0  0  0  0  0  0  0  0  0  0  0
   16.0168    3.8247   -1.2018 H   0  0  0  0  0  0  0  0  0  0  0  0
   14.8166    3.0538   -2.0331 H   0  0  0  0  0  0  0  0  0  0  0  0
   15.1776   -0.9108   -1.4043 C   0  0  0  0  0  0  0  0  0  0  0  0
   14.7172   -0.5384   -0.4957 H   0  0  0  0  0  0  0  0  0  0  0  0
   13.3088   -3.1216   -0.4322 C   0  0  0  0  0  0  0  0  0  0  0  0
   12.4427   -3.2079   -1.3028 O   0  0  0  0  0  0  0  0  0  0  0  0
   13.0517   -2.7288    0.8648 N   0  0  0  0  0  0  0  0  0  0  0  0
   11.7656   -2.2386    1.3585 C   0  0  0  0  0  0  0  0  0  0  0  0
   11.8168   -1.1663    1.5636 H   0  0  0  0  0  0  0  0  0  0  0  0
   11.4803   -2.7539    2.2782 H   0  0  0  0  0  0  0  0  0  0  0  0
   10.9670   -2.4121    0.6291 H   0  0  0  0  0  0  0  0  0  0  0  0
   14.2675   -2.5930    1.5021 C   0  0  0  0  0  0  0  0  0  0  0  0
   14.4411   -2.0685    2.7526 N   0  0  0  0  0  0  0  0  0  0  0  0
   13.6275   -2.0347    3.3672 H   0  0  0  0  0  0  0  0  0  0  0  0
   15.3662   -2.1327    3.1686 H   0  0  0  0  0  0  0  0  0  0  0  0
   15.2572   -2.9764    0.7631 N   0  0  0  0  0  4  0  0  0  0  0  0
   16.2338   -2.9224    1.0560 H   0  0  0  0  0  0  0  0  0  0  0  0
   14.3056   -5.5418   -1.7049 C   0  0  0  0  0  0  0  0  0  0  0  0
   13.3514   -5.1325   -2.0199 H   0  0  0  0  0  0  0  0  0  0  0  0
   14.6311   -6.8595   -2.0326 C   0  0  0  0  0  0  0  0  0  0  0  0
   13.9294   -7.4690   -2.5905 H   0  0  0  0  0  0  0  0  0  0  0  0
  1  2  1  0
  2  3  2  0
  3  4  1  0
  3  5  1  0
  5  6  1  0
  5  7  2  0
  7  8  1  0
  8  9  1  0
  9 10  2  0
 10 11  1  0
 10 12  1  0
 12 13  1  0
 12 14  2  0
 14 15  1  0
 14 16  1  0
 16 17  1  0
 17 18  1  0
 17 19  1  0
 19 20  2  0
 19 21  2  0
 19 22  1  0
 22 23  1  0
 22 24  1  0
 16 25  2  0
 25 26  1  0
  8 27  1  0
 27 28  2  0
 27 29  1  0
 29 30  1  0
 30 31  1  0
 30 32  1  0
 30 33  1  0
 29 34  1  0
 34 35  1  0
 35 36  1  0
 35 37  1  0
 34 38  2  0
 38 39  1  0
  7 40  1  0
 40 41  1  0
 40 42  2  0
 42 43  1  0
 42  2  1  0
 38  8  1  0
 25  9  1  0
M  CHG  1  38   1
M  END
>  <score>  (281) 
5.43409

$$$$

     RDKit          3D

 50 52  0  0  0  0  0  0  0  0999 V2000
   16.1747   -8.4217   -1.7273 H   0  0  0  0  0  0  0  0  0  0  0  0
   15.9238   -7.3835   -1.5332 C   0  0  0  0  0  0  0  0  0  0  0  0
   16.8121   -6.5733   -0.8177 C   0  0  0  0  0  0  0  0  0  0  0  0
   17.7635   -6.9671   -0.4732 H   0  0  0  0  0  0  0  0  0  0  0  0
   16.4766   -5.2463   -0.5343 C   0  0  0  0  0  0  0  0  0  0  0  0
   17.1640   -4.6167    0.0239 H   0  0  0  0  0  0  0  0  0  0  0  0
   15.2520   -4.7097   -0.9548 C   0  0  0  0  0  0  0  0  0  0  0  0
   14.8818   -3.2768   -0.5915 C   0  0  0  0  0  0  0  0  0  0  0  0
   15.4076   -2.2528   -1.5923 C   0  0  0  0  0  0  0  0  0  0  0  0
   15.8971   -2.5861   -2.8705 C   0  0  0  0  0  0  0  0  0  0  0  0
   15.9507   -3.6287   -3.1719 H   0  0  0  0  0  0  0  0  0  0  0  0
   16.3100   -1.5827   -3.7692 C   0  0  0  0  0  0  0  0  0  0  0  0
   16.7029   -1.8494   -4.7480 H   0  0  0  0  0  0  0  0  0  0  0  0
   16.1975   -0.2346   -3.3970 C   0  0  0  0  0  0  0  0  0  0  0  0
   16.5078    0.5610   -4.0656 H   0  0  0  0  0  0  0  0  0  0  0  0
   15.6633    0.0972   -2.1528 C   0  0  0  0  0  0  0  0  0  0  0  0
   15.4271    1.3845   -1.7150 N   0  0  0  0  0  0  0  0  0  0  0  0
   14.9289    1.4386   -0.8276 H   0  0  0  0  0  0  0  0  0  0  0  0
   15.2577    2.5317   -2.5967 C   0  0  0  0  0  0  0  0  0  0  0  0
   14.3964    2.1717   -3.8101 C   0  0  0  0  0  0  0  0  0  0  0  0
   14.9268    1.4744   -4.4646 H   0  0  0  0  0  0  0  0  0  0  0  0
   14.1384    3.0643   -4.3868 H   0  0  0  0  0  0  0  0  0  0  0  0
   13.4745    1.6920   -3.4758 H   0  0  0  0  0  0  0  0  0  0  0  0
   14.5607    3.5724   -1.7410 C   0  0  0  0  0  0  0  0  0  0  0  0
   13.6280    3.1607   -1.3436 H   0  0  0  0  0  0  0  0  0  0  0  0
   14.3310    4.4610   -2.3337 H   0  0  0  0  0  0  0  0  0  0  0  0
   15.2093    3.8548   -0.9046 H   0  0  0  0  0  0  0  0  0  0  0  0
   16.6312    3.0392   -3.0121 C   0  0  0  0  0  0  0  0  0  0  0  0
   17.3647    2.8066   -2.2357 H   0  0  0  0  0  0  0  0  0  0  0  0
   16.9465    2.5434   -3.9300 H   0  0  0  0  0  0  0  0  0  0  0  0
   16.6220    4.1230   -3.1732 H   0  0  0  0  0  0  0  0  0  0  0  0
   15.2885   -0.8982   -1.2696 C   0  0  0  0  0  0  0  0  0  0  0  0
   14.8826   -0.5847   -0.3169 H   0  0  0  0  0  0  0  0  0  0  0  0
   13.3638   -3.0808   -0.4663 C   0  0  0  0  0  0  0  0  0  0  0  0
   12.5434   -3.1575   -1.3812 O   0  0  0  0  0  0  0  0  0  0  0  0
   13.0301   -2.7650    0.8353 N   0  0  0  0  0  0  0  0  0  0  0  0
   11.7054   -2.3519    1.3135 C   0  0  0  0  0  0  0  0  0  0  0  0
   10.9481   -2.4905    0.5312 H   0  0  0  0  0  0  0  0  0  0  0  0
   11.4011   -2.9488    2.1816 H   0  0  0  0  0  0  0  0  0  0  0  0
   11.7074   -1.2919    1.5997 H   0  0  0  0  0  0  0  0  0  0  0  0
   14.2054   -2.7135    1.5526 C   0  0  0  0  0  0  0  0  0  0  0  0
   14.2612   -2.4093    2.8816 N   0  0  0  0  0  0  0  0  0  0  0  0
   15.1639   -2.1816    3.2849 H   0  0  0  0  0  0  0  0  0  0  0  0
   13.4177   -2.0372    3.3172 H   0  0  0  0  0  0  0  0  0  0  0  0
   15.2445   -2.9717    0.8175 N   0  0  0  0  0  4  0  0  0  0  0  0
   16.2086   -2.9347    1.1571 H   0  0  0  0  0  0  0  0  0  0  0  0
   14.3800   -5.5238   -1.7046 C   0  0  0  0  0  0  0  0  0  0  0  0
   13.4364   -5.1236   -2.0645 H   0  0  0  0  0  0  0  0  0  0  0  0
   14.7115   -6.8550   -1.9879 C   0  0  0  0  0  0  0  0  0  0  0  0
   14.0313   -7.4821   -2.5572 H   0  0  0  0  0  0  0  0  0  0  0  0
  1  2  1  0
  2  3  2  0
  3  4  1  0
  3  5  1  0
  5  6  1  0
  5  7  2  0
  7  8  1  0
  8  9  1  0
  9 10  2  0
 10 11  1  0
 10 12  1  0
 12 13  1  0
 12 14  2  0
 14 15  1  0
 14 16  1  0
 16 17  1  0
 17 18  1  0
 17 19  1  0
 19 20  1  0
 20 21  1  0
 20 22  1  0
 20 23  1  0
 19 24  1  0
 24 25  1  0
 24 26  1  0
 24 27  1  0
 19 28  1  0
 28 29  1  0
 28 30  1  0
 28 31  1  0
 16 32  2  0
 32 33  1  0
  8 34  1  0
 34 35  2  0
 34 36  1  0
 36 37  1  0
 37 38  1  0
 37 39  1  0
 37 40  1  0
 36 41  1  0
 41 42  1  0
 42 43  1  0
 42 44  1  0
 41 45  2  0
 45 46  1  0
  7 47  1  0
 47 48  1  0
 47 49  2  0
 49 50  1  0
 49  2  1  0
 45  8  1  0
 32  9  1  0
M  CHG  1  45   1
M  END
>  <score>  (282) 
5.4329

$$$$

     RDKit          3D

 46 49  0  0  0  0  0  0  0  0999 V2000
   15.6518   -9.7040    0.3050 H   0  0  0  0  0  0  0  0  0  0  0  0
   14.9508   -9.3969   -0.4709 C   0  0  0  0  0  0  0  0  0  0  0  0
   14.2106  -10.2110   -1.1944 N   0  0  0  0  0  0  0  0  0  0  0  0
   13.4543   -9.4047   -1.9994 N   0  0  0  0  0  0  0  0  0  0  0  0
   12.7454   -9.8639   -3.1958 C   0  0  0  0  0  0  0  0  0  0  0  0
   13.2646   -9.5302   -4.1006 H   0  0  0  0  0  0  0  0  0  0  0  0
   11.7293   -9.4705   -3.2070 H   0  0  0  0  0  0  0  0  0  0  0  0
   12.6870  -10.9521   -3.2197 H   0  0  0  0  0  0  0  0  0  0  0  0
   13.7154   -8.0614   -1.7776 C   0  0  0  0  0  0  0  0  0  0  0  0
   13.3156   -7.2157   -2.3260 H   0  0  0  0  0  0  0  0  0  0  0  0
   14.7149   -8.0163   -0.8605 C   0  0  0  0  0  0  0  0  0  0  0  0
   15.5067   -6.8212   -0.5767 C   0  0  0  0  0  0  0  0  0  0  0  0
   16.8896   -6.9400   -0.4164 C   0  0  0  0  0  0  0  0  0  0  0  0
   17.3614   -7.9164   -0.4101 H   0  0  0  0  0  0  0  0  0  0  0  0
   17.6916   -5.8072   -0.3073 C   0  0  0  0  0  0  0  0  0  0  0  0
   18.7551   -5.9363   -0.1443 H   0  0  0  0  0  0  0  0  0  0  0  0
   17.1138   -4.5318   -0.3423 C   0  0  0  0  0  0  0  0  0  0  0  0
   17.7262   -3.6383   -0.2500 H   0  0  0  0  0  0  0  0  0  0  0  0
   15.7230   -4.3865   -0.4487 C   0  0  0  0  0  0  0  0  0  0  0  0
   15.0929   -3.0006   -0.3967 C   0  0  0  0  0  0  0  0  0  0  0  0
   15.5615   -2.0902   -1.5137 C   0  0  0  0  0  0  0  0  0  0  0  0
   16.0173   -2.6148   -2.7341 C   0  0  0  0  0  0  0  0  0  0  0  0
   16.0554   -3.6897   -2.8779 H   0  0  0  0  0  0  0  0  0  0  0  0
   16.4161   -1.7666   -3.7736 C   0  0  0  0  0  0  0  0  0  0  0  0
   16.7702   -2.1802   -4.7138 H   0  0  0  0  0  0  0  0  0  0  0  0
   16.3486   -0.3786   -3.6136 C   0  0  0  0  0  0  0  0  0  0  0  0
   16.6491    0.2777   -4.4261 H   0  0  0  0  0  0  0  0  0  0  0  0
   15.8892    0.1599   -2.4060 C   0  0  0  0  0  0  0  0  0  0  0  0
   15.8324    1.2385   -2.2773 H   0  0  0  0  0  0  0  0  0  0  0  0
   15.4921   -0.6937   -1.3700 C   0  0  0  0  0  0  0  0  0  0  0  0
   15.1171   -0.2712   -0.4411 H   0  0  0  0  0  0  0  0  0  0  0  0
   13.5519   -2.9867   -0.3301 C   0  0  0  0  0  0  0  0  0  0  0  0
   12.7733   -3.3142   -1.2215 O   0  0  0  0  0  0  0  0  0  0  0  0
   13.1604   -2.4900    0.8980 N   0  0  0  0  0  0  0  0  0  0  0  0
   11.7936   -2.2743    1.3772 C   0  0  0  0  0  0  0  0  0  0  0  0
   11.6586   -1.2258    1.6681 H   0  0  0  0  0  0  0  0  0  0  0  0
   11.0608   -2.5081    0.5974 H   0  0  0  0  0  0  0  0  0  0  0  0
   11.5817   -2.9110    2.2440 H   0  0  0  0  0  0  0  0  0  0  0  0
   14.3126   -2.2070    1.5918 C   0  0  0  0  0  0  0  0  0  0  0  0
   14.3771   -1.8248    2.8933 N   0  0  0  0  0  0  0  0  0  0  0  0
   13.5456   -1.9797    3.4560 H   0  0  0  0  0  0  0  0  0  0  0  0
   15.2860   -1.8967    3.3473 H   0  0  0  0  0  0  0  0  0  0  0  0
   15.3911   -2.4150    0.9170 N   0  0  0  0  0  4  0  0  0  0  0  0
   16.3122   -2.4876    1.3480 H   0  0  0  0  0  0  0  0  0  0  0  0
   14.9351   -5.5407   -0.5868 C   0  0  0  0  0  0  0  0  0  0  0  0
   13.8593   -5.4507   -0.6885 H   0  0  0  0  0  0  0  0  0  0  0  0
  1  2  1  0
  2  3  2  0
  3  4  1  0
  4  5  1  0
  5  6  1  0
  5  7  1  0
  5  8  1  0
  4  9  1  0
  9 10  1  0
  9 11  2  0
 11 12  1  0
 12 13  2  0
 13 14  1  0
 13 15  1  0
 15 16  1  0
 15 17  2  0
 17 18  1  0
 17 19  1  0
 19 20  1  0
 20 21  1  0
 21 22  2  0
 22 23  1  0
 22 24  1  0
 24 25  1  0
 24 26  2  0
 26 27  1  0
 26 28  1  0
 28 29  1  0
 28 30  2  0
 30 31  1  0
 20 32  1  0
 32 33  2  0
 32 34  1  0
 34 35  1  0
 35 36  1  0
 35 37  1  0
 35 38  1  0
 34 39  1  0
 39 40  1  0
 40 41  1  0
 40 42  1  0
 39 43  2  0
 43 44  1  0
 19 45  2  0
 45 46  1  0
 11  2  1  0
 45 12  1  0
 43 20  1  0
 30 21  1  0
M  CHG  1  43   1
M  END
>  <score>  (283) 
5.43049

$$$$

     RDKit          3D

 51 54  0  0  0  0  0  0  0  0999 V2000
   12.9277  -11.4640    2.2310 H   0  0  0  0  0  0  0  0  0  0  0  0
   13.0556  -11.0304    1.2430 C   0  0  0  0  0  0  0  0  0  0  0  0
   14.2290  -11.2810    0.5276 C   0  0  0  0  0  0  0  0  0  0  0  0
   15.0074  -11.9095    0.9466 H   0  0  0  0  0  0  0  0  0  0  0  0
   14.4263  -10.6833   -0.7172 C   0  0  0  0  0  0  0  0  0  0  0  0
   15.3451  -10.8721   -1.2664 H   0  0  0  0  0  0  0  0  0  0  0  0
   13.4633   -9.8141   -1.2523 C   0  0  0  0  0  0  0  0  0  0  0  0
   13.7583   -9.1297   -2.5602 C   0  0  0  0  0  0  0  0  0  0  0  0
   13.1412   -9.5409   -3.3609 H   0  0  0  0  0  0  0  0  0  0  0  0
   14.7861   -9.3311   -2.8053 H   0  0  0  0  0  0  0  0  0  0  0  0
   13.6377   -7.6719   -2.5112 N   0  0  0  0  0  0  0  0  0  0  0  0
   12.8374   -7.2214   -2.9386 H   0  0  0  0  0  0  0  0  0  0  0  0
   14.5990   -6.8620   -1.9370 C   0  0  0  0  0  0  0  0  0  0  0  0
   15.8023   -7.3958   -1.4853 C   0  0  0  0  0  0  0  0  0  0  0  0
   15.9717   -8.4536   -1.6438 H   0  0  0  0  0  0  0  0  0  0  0  0
   16.7230   -6.5810   -0.8218 C   0  0  0  0  0  0  0  0  0  0  0  0
   17.6528   -6.9908   -0.4363 H   0  0  0  0  0  0  0  0  0  0  0  0
   16.4103   -5.2337   -0.6171 C   0  0  0  0  0  0  0  0  0  0  0  0
   17.0931   -4.5958   -0.0666 H   0  0  0  0  0  0  0  0  0  0  0  0
   15.1980   -4.6875   -1.0671 C   0  0  0  0  0  0  0  0  0  0  0  0
   14.8355   -3.2482   -0.7576 C   0  0  0  0  0  0  0  0  0  0  0  0
   15.3893   -2.2528   -1.7678 C   0  0  0  0  0  0  0  0  0  0  0  0
   15.9357   -2.6636   -2.9982 C   0  0  0  0  0  0  0  0  0  0  0  0
   15.9905   -3.7237   -3.2345 H   0  0  0  0  0  0  0  0  0  0  0  0
   16.4133   -1.7160   -3.9159 C   0  0  0  0  0  0  0  0  0  0  0  0
   16.8392   -2.0296   -4.8645 H   0  0  0  0  0  0  0  0  0  0  0  0
   16.3484   -0.3513   -3.6115 C   0  0  0  0  0  0  0  0  0  0  0  0
   16.7251    0.3831   -4.3174 H   0  0  0  0  0  0  0  0  0  0  0  0
   15.7924    0.0709   -2.4000 C   0  0  0  0  0  0  0  0  0  0  0  0
   15.7337    1.1299   -2.1596 H   0  0  0  0  0  0  0  0  0  0  0  0
   15.3113   -0.8771   -1.4911 C   0  0  0  0  0  0  0  0  0  0  0  0
   14.8781   -0.5480   -0.5508 H   0  0  0  0  0  0  0  0  0  0  0  0
   13.3152   -3.0618   -0.5874 C   0  0  0  0  0  0  0  0  0  0  0  0
   12.4510   -3.1815   -1.4564 O   0  0  0  0  0  0  0  0  0  0  0  0
   13.0415   -2.6980    0.7180 N   0  0  0  0  0  0  0  0  0  0  0  0
   11.7402   -2.3214    1.2755 C   0  0  0  0  0  0  0  0  0  0  0  0
   10.9359   -2.4837    0.5508 H   0  0  0  0  0  0  0  0  0  0  0  0
   11.7334   -1.2624    1.5535 H   0  0  0  0  0  0  0  0  0  0  0  0
   11.5071   -2.9126    2.1679 H   0  0  0  0  0  0  0  0  0  0  0  0
   14.2495   -2.6205    1.3775 C   0  0  0  0  0  0  0  0  0  0  0  0
   14.4238   -2.2670    2.6815 N   0  0  0  0  0  0  0  0  0  0  0  0
   15.3585   -2.3156    3.0854 H   0  0  0  0  0  0  0  0  0  0  0  0
   13.6084   -2.1240    3.2752 H   0  0  0  0  0  0  0  0  0  0  0  0
   15.2535   -2.9161    0.6210 N   0  0  0  0  0  4  0  0  0  0  0  0
   16.2168   -2.9858    0.9549 H   0  0  0  0  0  0  0  0  0  0  0  0
   14.3038   -5.5192   -1.7592 C   0  0  0  0  0  0  0  0  0  0  0  0
   13.3477   -5.1604   -2.1260 H   0  0  0  0  0  0  0  0  0  0  0  0
   12.2636   -9.6065   -0.5590 C   0  0  0  0  0  0  0  0  0  0  0  0
   11.5017   -8.9585   -0.9826 H   0  0  0  0  0  0  0  0  0  0  0  0
   12.0695  -10.2044    0.6906 C   0  0  0  0  0  0  0  0  0  0  0  0
   11.1624   -9.9982    1.2450 H   0  0  0  0  0  0  0  0  0  0  0  0
  1  2  1  0
  2  3  2  0
  3  4  1  0
  3  5  1  0
  5  6  1  0
  5  7  2  0
  7  8  1  0
  8  9  1  0
  8 10  1  0
  8 11  1  0
 11 12  1  0
 11 13  1  0
 13 14  2  0
 14 15  1  0
 14 16  1  0
 16 17  1  0
 16 18  2  0
 18 19  1  0
 18 20  1  0
 20 21  1  0
 21 22  1  0
 22 23  2  0
 23 24  1  0
 23 25  1  0
 25 26  1  0
 25 27  2  0
 27 28  1  0
 27 29  1  0
 29 30  1  0
 29 31  2  0
 31 32  1  0
 21 33  1  0
 33 34  2  0
 33 35  1  0
 35 36  1  0
 36 37  1  0
 36 38  1  0
 36 39  1  0
 35 40  1  0
 40 41  1  0
 41 42  1  0
 41 43  1  0
 40 44  2  0
 44 45  1  0
 20 46  2  0
 46 47  1  0
  7 48  1  0
 48 49  1  0
 48 50  2  0
 50 51  1  0
 50  2  1  0
 46 13  1  0
 44 21  1  0
 31 22  1  0
M  CHG  1  44   1
M  END
>  <score>  (284) 
5.43009

$$$$

     RDKit          3D

 50 53  0  0  0  0  0  0  0  0999 V2000
   11.4474  -11.3483   -4.5452 H   0  0  0  0  0  0  0  0  0  0  0  0
   11.1110  -11.7271   -3.7034 O   0  0  0  0  0  0  0  0  0  0  0  0
   10.9529  -10.6840   -2.7316 C   0  0  0  0  0  0  0  0  0  0  0  0
   10.5216  -11.1293   -1.8348 H   0  0  0  0  0  0  0  0  0  0  0  0
   10.2266   -9.9562   -3.1106 H   0  0  0  0  0  0  0  0  0  0  0  0
   12.2381   -9.9559   -2.3472 C   0  0  0  0  0  0  0  0  0  0  0  0
   12.6041   -9.8465   -0.9917 C   0  0  0  0  0  0  0  0  0  0  0  0
   12.0323  -10.3893   -0.2490 H   0  0  0  0  0  0  0  0  0  0  0  0
   13.6611   -9.0143   -0.5802 C   0  0  0  0  0  0  0  0  0  0  0  0
   13.9122   -8.9275    0.4718 H   0  0  0  0  0  0  0  0  0  0  0  0
   14.3635   -8.2390   -1.5133 C   0  0  0  0  0  0  0  0  0  0  0  0
   15.2716   -7.1467   -1.1130 C   0  0  0  0  0  0  0  0  0  0  0  0
   16.6195   -7.3609   -0.7842 C   0  0  0  0  0  0  0  0  0  0  0  0
   17.0167   -8.3688   -0.7785 H   0  0  0  0  0  0  0  0  0  0  0  0
   17.4520   -6.2736   -0.4698 C   0  0  0  0  0  0  0  0  0  0  0  0
   18.4995   -6.4315   -0.2193 H   0  0  0  0  0  0  0  0  0  0  0  0
   16.9336   -4.9771   -0.4342 C   0  0  0  0  0  0  0  0  0  0  0  0
   17.5729   -4.1366   -0.1709 H   0  0  0  0  0  0  0  0  0  0  0  0
   15.5807   -4.7392   -0.7250 C   0  0  0  0  0  0  0  0  0  0  0  0
   15.0043   -3.3383   -0.5635 C   0  0  0  0  0  0  0  0  0  0  0  0
   15.4534   -2.3594   -1.6415 C   0  0  0  0  0  0  0  0  0  0  0  0
   15.9464   -2.7881   -2.8867 C   0  0  0  0  0  0  0  0  0  0  0  0
   16.0031   -3.8501   -3.1095 H   0  0  0  0  0  0  0  0  0  0  0  0
   16.3766   -1.8554   -3.8420 C   0  0  0  0  0  0  0  0  0  0  0  0
   16.7698   -2.1876   -4.7970 H   0  0  0  0  0  0  0  0  0  0  0  0
   16.3080   -0.4855   -3.5669 C   0  0  0  0  0  0  0  0  0  0  0  0
   16.6653    0.2362   -4.2961 H   0  0  0  0  0  0  0  0  0  0  0  0
   15.7791   -0.0464   -2.3512 C   0  0  0  0  0  0  0  0  0  0  0  0
   15.7089    1.0159   -2.1341 H   0  0  0  0  0  0  0  0  0  0  0  0
   15.3455   -0.9779   -1.4039 C   0  0  0  0  0  0  0  0  0  0  0  0
   14.9314   -0.6267   -0.4634 H   0  0  0  0  0  0  0  0  0  0  0  0
   13.4708   -3.2915   -0.4071 C   0  0  0  0  0  0  0  0  0  0  0  0
   12.6307   -3.6478   -1.2305 O   0  0  0  0  0  0  0  0  0  0  0  0
   13.1508   -2.7626    0.8307 N   0  0  0  0  0  0  0  0  0  0  0  0
   11.8260   -2.3598    1.2983 C   0  0  0  0  0  0  0  0  0  0  0  0
   11.5493   -2.9124    2.2031 H   0  0  0  0  0  0  0  0  0  0  0  0
   11.8147   -1.2881    1.5276 H   0  0  0  0  0  0  0  0  0  0  0  0
   11.0640   -2.5494    0.5333 H   0  0  0  0  0  0  0  0  0  0  0  0
   14.3362   -2.5361    1.4929 C   0  0  0  0  0  0  0  0  0  0  0  0
   14.4838   -2.0711    2.7624 N   0  0  0  0  0  0  0  0  0  0  0  0
   15.4060   -2.1735    3.1855 H   0  0  0  0  0  0  0  0  0  0  0  0
   13.6635   -2.0685    3.3668 H   0  0  0  0  0  0  0  0  0  0  0  0
   15.3677   -2.8381    0.7770 N   0  0  0  0  0  4  0  0  0  0  0  0
   16.3255   -2.8072    1.1245 H   0  0  0  0  0  0  0  0  0  0  0  0
   14.7778   -5.8319   -1.1028 C   0  0  0  0  0  0  0  0  0  0  0  0
   13.7350   -5.6698   -1.3603 H   0  0  0  0  0  0  0  0  0  0  0  0
   14.0693   -8.4259   -2.8647 C   0  0  0  0  0  0  0  0  0  0  0  0
   14.6152   -7.8613   -3.6117 H   0  0  0  0  0  0  0  0  0  0  0  0
   13.0409   -9.2812   -3.2767 C   0  0  0  0  0  0  0  0  0  0  0  0
   12.8574   -9.3336   -4.3387 H   0  0  0  0  0  0  0  0  0  0  0  0
  1  2  1  0
  2  3  1  0
  3  4  1  0
  3  5  1  0
  3  6  1  0
  6  7  2  0
  7  8  1  0
  7  9  1  0
  9 10  1  0
  9 11  2  0
 11 12  1  0
 12 13  2  0
 13 14  1  0
 13 15  1  0
 15 16  1  0
 15 17  2  0
 17 18  1  0
 17 19  1  0
 19 20  1  0
 20 21  1  0
 21 22  2  0
 22 23  1  0
 22 24  1  0
 24 25  1  0
 24 26  2  0
 26 27  1  0
 26 28  1  0
 28 29  1  0
 28 30  2  0
 30 31  1  0
 20 32  1  0
 32 33  2  0
 32 34  1  0
 34 35  1  0
 35 36  1  0
 35 37  1  0
 35 38  1  0
 34 39  1  0
 39 40  1  0
 40 41  1  0
 40 42  1  0
 39 43  2  0
 43 44  1  0
 19 45  2  0
 45 46  1  0
 11 47  1  0
 47 48  1  0
 47 49  2  0
 49 50  1  0
 49  6  1  0
 45 12  1  0
 43 20  1  0
 30 21  1  0
M  CHG  1  43   1
M  END
>  <score>  (285) 
5.42906

$$$$

     RDKit          3D

 48 50  0  0  0  0  0  0  0  0999 V2000
   16.1151   -8.4192   -1.6950 H   0  0  0  0  0  0  0  0  0  0  0  0
   15.8781   -7.3731   -1.5214 C   0  0  0  0  0  0  0  0  0  0  0  0
   16.7778   -6.5517   -0.8378 C   0  0  0  0  0  0  0  0  0  0  0  0
   17.7170   -6.9606   -0.4764 H   0  0  0  0  0  0  0  0  0  0  0  0
   16.4649   -5.2059   -0.6056 C   0  0  0  0  0  0  0  0  0  0  0  0
   17.1617   -4.5823   -0.0540 H   0  0  0  0  0  0  0  0  0  0  0  0
   15.2474   -4.6603   -1.0490 C   0  0  0  0  0  0  0  0  0  0  0  0
   14.8707   -3.2115   -0.7265 C   0  0  0  0  0  0  0  0  0  0  0  0
   15.2756   -2.1927   -1.7855 C   0  0  0  0  0  0  0  0  0  0  0  0
   15.9611   -2.5689   -2.9512 C   0  0  0  0  0  0  0  0  0  0  0  0
   16.2025   -3.6137   -3.1154 H   0  0  0  0  0  0  0  0  0  0  0  0
   16.3524   -1.6129   -3.8942 C   0  0  0  0  0  0  0  0  0  0  0  0
   16.9135   -1.9054   -4.7757 H   0  0  0  0  0  0  0  0  0  0  0  0
   16.0437   -0.2640   -3.6964 C   0  0  0  0  0  0  0  0  0  0  0  0
   16.3504    0.4861   -4.4188 H   0  0  0  0  0  0  0  0  0  0  0  0
   15.3457    0.1449   -2.5538 C   0  0  0  0  0  0  0  0  0  0  0  0
   15.0580    1.6294   -2.3572 C   0  0  1  0  0  0  0  0  0  0  0  0
   15.3018    2.1651   -3.2809 H   0  0  0  0  0  0  0  0  0  0  0  0
   13.5627    1.8468   -2.0878 C   0  0  0  0  0  0  0  0  0  0  0  0
   13.3478    2.9149   -1.9678 H   0  0  0  0  0  0  0  0  0  0  0  0
   12.9844    1.4769   -2.9412 H   0  0  0  0  0  0  0  0  0  0  0  0
   13.2382    1.3126   -1.1869 H   0  0  0  0  0  0  0  0  0  0  0  0
   15.9474    2.2287   -1.2461 C   0  0  0  0  0  0  0  0  0  0  0  0
   15.6303    3.2526   -1.0001 H   0  0  0  0  0  0  0  0  0  0  0  0
   15.8695    1.6261   -0.3354 H   0  0  0  0  0  0  0  0  0  0  0  0
   17.4094    2.2691   -1.7069 C   0  0  0  0  0  0  0  0  0  0  0  0
   18.0631    2.4907   -0.8629 H   0  0  0  0  0  0  0  0  0  0  0  0
   17.7192    1.3159   -2.1430 H   0  0  0  0  0  0  0  0  0  0  0  0
   17.5489    3.0424   -2.4633 H   0  0  0  0  0  0  0  0  0  0  0  0
   14.9603   -0.8270   -1.6102 C   0  0  0  0  0  0  0  0  0  0  0  0
   14.4108   -0.5164   -0.7238 H   0  0  0  0  0  0  0  0  0  0  0  0
   13.3635   -3.0865   -0.4452 C   0  0  0  0  0  0  0  0  0  0  0  0
   12.4304   -3.3164   -1.2151 O   0  0  0  0  0  0  0  0  0  0  0  0
   13.1769   -2.6479    0.8424 N   0  0  0  0  0  0  0  0  0  0  0  0
   11.9075   -2.2576    1.4414 C   0  0  0  0  0  0  0  0  0  0  0  0
   11.7540   -1.1770    1.3288 H   0  0  0  0  0  0  0  0  0  0  0  0
   11.8898   -2.5045    2.5106 H   0  0  0  0  0  0  0  0  0  0  0  0
   11.0879   -2.7915    0.9437 H   0  0  0  0  0  0  0  0  0  0  0  0
   14.4148   -2.5032    1.4201 C   0  0  0  0  0  0  0  0  0  0  0  0
   14.5538   -2.0912    2.7091 N   0  0  0  0  0  0  0  0  0  0  0  0
   13.7438   -2.2045    3.3140 H   0  0  0  0  0  0  0  0  0  0  0  0
   15.4789   -2.1265    3.1248 H   0  0  0  0  0  0  0  0  0  0  0  0
   15.3769   -2.7993    0.6071 N   0  0  0  0  0  4  0  0  0  0  0  0
   16.3690   -2.7052    0.8407 H   0  0  0  0  0  0  0  0  0  0  0  0
   14.3623   -5.4955   -1.7605 C   0  0  0  0  0  0  0  0  0  0  0  0
   13.4142   -5.1053   -2.1214 H   0  0  0  0  0  0  0  0  0  0  0  0
   14.6732   -6.8431   -1.9899 C   0  0  0  0  0  0  0  0  0  0  0  0
   13.9784   -7.4823   -2.5253 H   0  0  0  0  0  0  0  0  0  0  0  0
  1  2  1  0
  2  3  2  0
  3  4  1  0
  3  5  1  0
  5  6  1  0
  5  7  2  0
  7  8  1  0
  8  9  1  0
  9 10  2  0
 10 11  1  0
 10 12  1  0
 12 13  1  0
 12 14  2  0
 14 15  1  0
 14 16  1  0
 16 17  1  0
 17 18  1  6
 17 19  1  0
 19 20  1  0
 19 21  1  0
 19 22  1  0
 17 23  1  0
 23 24  1  0
 23 25  1  0
 23 26  1  0
 26 27  1  0
 26 28  1  0
 26 29  1  0
 16 30  2  0
 30 31  1  0
  8 32  1  0
 32 33  2  0
 32 34  1  0
 34 35  1  0
 35 36  1  0
 35 37  1  0
 35 38  1  0
 34 39  1  0
 39 40  1  0
 40 41  1  0
 40 42  1  0
 39 43  2  0
 43 44  1  0
  7 45  1  0
 45 46  1  0
 45 47  2  0
 47 48  1  0
 47  2  1  0
 43  8  1  0
 30  9  1  0
M  CHG  1  43   1
M  END
>  <score>  (286) 
5.4179

$$$$

     RDKit          3D

 45 48  0  0  0  0  0  0  0  0999 V2000
   16.0998   -8.4453   -1.6307 H   0  0  0  0  0  0  0  0  0  0  0  0
   15.8571   -7.3961   -1.4856 C   0  0  0  0  0  0  0  0  0  0  0  0
   16.7465   -6.5608   -0.8025 C   0  0  0  0  0  0  0  0  0  0  0  0
   17.6824   -6.9535   -0.4142 H   0  0  0  0  0  0  0  0  0  0  0  0
   16.4225   -5.2157   -0.5959 C   0  0  0  0  0  0  0  0  0  0  0  0
   17.1106   -4.5741   -0.0530 H   0  0  0  0  0  0  0  0  0  0  0  0
   15.2054   -4.6857   -1.0540 C   0  0  0  0  0  0  0  0  0  0  0  0
   14.8343   -3.2375   -0.7559 C   0  0  0  0  0  0  0  0  0  0  0  0
   15.3750   -2.2298   -1.7644 C   0  0  0  0  0  0  0  0  0  0  0  0
   15.9391   -2.6287   -2.9859 C   0  0  0  0  0  0  0  0  0  0  0  0
   16.0228   -3.6860   -3.2173 H   0  0  0  0  0  0  0  0  0  0  0  0
   16.4032   -1.6773   -3.9032 C   0  0  0  0  0  0  0  0  0  0  0  0
   16.8528   -1.9987   -4.8363 H   0  0  0  0  0  0  0  0  0  0  0  0
   16.2816   -0.3109   -3.6277 C   0  0  0  0  0  0  0  0  0  0  0  0
   16.6379    0.4248   -4.3441 H   0  0  0  0  0  0  0  0  0  0  0  0
   15.6799    0.1093   -2.4346 C   0  0  0  0  0  0  0  0  0  0  0  0
   15.4610    1.5793   -2.1415 C   0  0  1  0  0  0  0  0  0  0  0  0
   14.5305    1.9903   -2.5347 H   0  0  0  0  0  0  0  0  0  0  0  0
   15.9801    2.1112   -0.8117 C   0  0  0  0  0  0  0  0  0  0  0  0
   16.5691    1.4147   -0.2072 H   0  0  0  0  0  0  0  0  0  0  0  0
   15.3849    2.8516   -0.2640 H   0  0  0  0  0  0  0  0  0  0  0  0
   16.6060    2.5688   -2.1086 C   0  0  1  0  0  0  0  0  0  0  0  0
   16.4363    3.6144   -2.4011 H   0  0  0  0  0  0  0  0  0  0  0  0
   17.8906    1.9862   -2.4253 N   0  0  0  0  0  0  0  0  0  0  0  0
   17.9729    1.8452   -3.4293 H   0  0  0  0  0  0  0  0  0  0  0  0
   18.0109    1.1018   -1.9270 H   0  0  0  0  0  0  0  0  0  0  0  0
   15.2533   -0.8520   -1.5083 C   0  0  0  0  0  0  0  0  0  0  0  0
   14.8066   -0.5138   -0.5773 H   0  0  0  0  0  0  0  0  0  0  0  0
   13.3142   -3.0452   -0.5848 C   0  0  0  0  0  0  0  0  0  0  0  0
   12.4489   -3.1685   -1.4486 O   0  0  0  0  0  0  0  0  0  0  0  0
   13.0423   -2.6824    0.7223 N   0  0  0  0  0  0  0  0  0  0  0  0
   11.7395   -2.3150    1.2794 C   0  0  0  0  0  0  0  0  0  0  0  0
   11.7287   -1.2564    1.5638 H   0  0  0  0  0  0  0  0  0  0  0  0
   11.5102   -2.9138    2.1692 H   0  0  0  0  0  0  0  0  0  0  0  0
   10.9373   -2.4785    0.5502 H   0  0  0  0  0  0  0  0  0  0  0  0
   14.2505   -2.6104    1.3790 C   0  0  0  0  0  0  0  0  0  0  0  0
   14.4274   -2.2736    2.6877 N   0  0  0  0  0  0  0  0  0  0  0  0
   13.6120   -2.1190    3.2795 H   0  0  0  0  0  0  0  0  0  0  0  0
   15.3632   -2.3141    3.0877 H   0  0  0  0  0  0  0  0  0  0  0  0
   15.2532   -2.9018    0.6199 N   0  0  0  0  0  4  0  0  0  0  0  0
   16.2140   -2.9826    0.9568 H   0  0  0  0  0  0  0  0  0  0  0  0
   14.3253   -5.5328   -1.7520 C   0  0  0  0  0  0  0  0  0  0  0  0
   13.3739   -5.1513   -2.1117 H   0  0  0  0  0  0  0  0  0  0  0  0
   14.6490   -6.8796   -1.9668 C   0  0  0  0  0  0  0  0  0  0  0  0
   13.9551   -7.5305   -2.4913 H   0  0  0  0  0  0  0  0  0  0  0  0
  1  2  1  0
  2  3  2  0
  3  4  1  0
  3  5  1  0
  5  6  1  0
  5  7  2  0
  7  8  1  0
  8  9  1  0
  9 10  2  0
 10 11  1  0
 10 12  1  0
 12 13  1  0
 12 14  2  0
 14 15  1  0
 14 16  1  0
 16 17  1  0
 17 18  1  6
 17 19  1  0
 19 20  1  0
 19 21  1  0
 19 22  1  0
 22 23  1  6
 22 24  1  0
 24 25  1  0
 24 26  1  0
 16 27  2  0
 27 28  1  0
  8 29  1  0
 29 30  2  0
 29 31  1  0
 31 32  1  0
 32 33  1  0
 32 34  1  0
 32 35  1  0
 31 36  1  0
 36 37  1  0
 37 38  1  0
 37 39  1  0
 36 40  2  0
 40 41  1  0
  7 42  1  0
 42 43  1  0
 42 44  2  0
 44 45  1  0
 44  2  1  0
 40  8  1  0
 27  9  1  0
 22 17  1  0
M  CHG  1  40   1
M  END
>  <score>  (287) 
5.4153

$$$$

     RDKit          3D

 36 38  0  0  0  0  0  0  0  0999 V2000
   16.1325   -8.4950   -1.6105 H   0  0  0  0  0  0  0  0  0  0  0  0
   15.8578   -7.4535   -1.4636 C   0  0  0  0  0  0  0  0  0  0  0  0
   16.7257   -6.5913   -0.7924 C   0  0  0  0  0  0  0  0  0  0  0  0
   17.6821   -6.9549   -0.4239 H   0  0  0  0  0  0  0  0  0  0  0  0
   16.3683   -5.2538   -0.5961 C   0  0  0  0  0  0  0  0  0  0  0  0
   17.0779   -4.6126   -0.0835 H   0  0  0  0  0  0  0  0  0  0  0  0
   15.1471   -4.7313   -1.0677 C   0  0  0  0  0  0  0  0  0  0  0  0
   14.7951   -3.2523   -0.7917 C   0  0  0  0  0  0  0  0  0  0  0  0
   15.3839   -2.2454   -1.7918 C   0  0  0  0  0  0  0  0  0  0  0  0
   15.9495   -2.6470   -3.0190 C   0  0  0  0  0  0  0  0  0  0  0  0
   16.0144   -3.6996   -3.2886 H   0  0  0  0  0  0  0  0  0  0  0  0
   16.4297   -1.6907   -3.9240 C   0  0  0  0  0  0  0  0  0  0  0  0
   16.8641   -2.0098   -4.8677 H   0  0  0  0  0  0  0  0  0  0  0  0
   16.3391   -0.3237   -3.6278 C   0  0  0  0  0  0  0  0  0  0  0  0
   16.7000    0.4045   -4.3480 H   0  0  0  0  0  0  0  0  0  0  0  0
   15.7959    0.1056   -2.4114 C   0  0  0  0  0  0  0  0  0  0  0  0
   15.6832    1.9797   -1.9958 Br  0  0  0  0  0  0  0  0  0  0  0  0
   15.3288   -0.8587   -1.5053 C   0  0  0  0  0  0  0  0  0  0  0  0
   14.9008   -0.5201   -0.5653 H   0  0  0  0  0  0  0  0  0  0  0  0
   13.2751   -3.0088   -0.6213 C   0  0  0  0  0  0  0  0  0  0  0  0
   12.4091   -3.0688   -1.4956 O   0  0  0  0  0  0  0  0  0  0  0  0
   13.0146   -2.6596    0.6953 N   0  0  0  0  0  0  0  0  0  0  0  0
   11.7115   -2.3100    1.2657 C   0  0  0  0  0  0  0  0  0  0  0  0
   11.4991   -2.9315    2.1501 H   0  0  0  0  0  0  0  0  0  0  0  0
   10.9167   -2.4815    0.5252 H   0  0  0  0  0  0  0  0  0  0  0  0
   11.6953   -1.2484    1.5592 H   0  0  0  0  0  0  0  0  0  0  0  0
   14.2228   -2.6329    1.3672 C   0  0  0  0  0  0  0  0  0  0  0  0
   14.3835   -2.3487    2.6988 N   0  0  0  0  0  0  0  0  0  0  0  0
   13.5732   -2.1252    3.2800 H   0  0  0  0  0  0  0  0  0  0  0  0
   15.3203   -2.3645    3.1029 H   0  0  0  0  0  0  0  0  0  0  0  0
   15.2227   -2.9122    0.5897 N   0  0  0  0  0  4  0  0  0  0  0  0
   16.2013   -2.8733    0.8897 H   0  0  0  0  0  0  0  0  0  0  0  0
   14.2939   -5.6142   -1.7729 C   0  0  0  0  0  0  0  0  0  0  0  0
   13.3518   -5.2680   -2.1876 H   0  0  0  0  0  0  0  0  0  0  0  0
   14.6431   -6.9648   -1.9569 C   0  0  0  0  0  0  0  0  0  0  0  0
   13.9722   -7.6333   -2.4909 H   0  0  0  0  0  0  0  0  0  0  0  0
  1  2  1  0
  2  3  2  0
  3  4  1  0
  3  5  1  0
  5  6  1  0
  5  7  2  0
  7  8  1  0
  8  9  1  0
  9 10  2  0
 10 11  1  0
 10 12  1  0
 12 13  1  0
 12 14  2  0
 14 15  1  0
 14 16  1  0
 16 17  1  0
 16 18  2  0
 18 19  1  0
  8 20  1  0
 20 21  2  0
 20 22  1  0
 22 23  1  0
 23 24  1  0
 23 25  1  0
 23 26  1  0
 22 27  1  0
 27 28  1  0
 28 29  1  0
 28 30  1  0
 27 31  2  0
 31 32  1  0
  7 33  1  0
 33 34  1  0
 33 35  2  0
 35 36  1  0
 35  2  1  0
 31  8  1  0
 18  9  1  0
M  CHG  1  31   1
M  END
>  <score>  (288) 
5.4084

$$$$

     RDKit          3D

 48 51  0  0  0  0  0  0  0  0999 V2000
   12.7667  -10.9646   -3.3089 H   0  0  0  0  0  0  0  0  0  0  0  0
   12.5185  -10.0021   -2.8653 C   0  0  0  0  0  0  0  0  0  0  0  0
   13.5218   -9.1662   -2.5813 N   0  0  0  0  0  0  0  0  0  0  0  0
   13.2478   -7.9555   -2.0510 C   0  0  0  0  0  0  0  0  0  0  0  0
   14.3546   -7.0501   -1.6826 C   0  0  0  0  0  0  0  0  0  0  0  0
   15.6505   -7.5457   -1.4563 C   0  0  0  0  0  0  0  0  0  0  0  0
   15.8602   -8.6005   -1.6081 H   0  0  0  0  0  0  0  0  0  0  0  0
   16.6769   -6.7090   -1.0111 C   0  0  0  0  0  0  0  0  0  0  0  0
   17.6635   -7.1089   -0.8082 H   0  0  0  0  0  0  0  0  0  0  0  0
   16.4349   -5.3492   -0.7894 C   0  0  0  0  0  0  0  0  0  0  0  0
   17.2261   -4.7040   -0.4165 H   0  0  0  0  0  0  0  0  0  0  0  0
   15.1515   -4.8299   -1.0196 C   0  0  0  0  0  0  0  0  0  0  0  0
   14.8107   -3.3792   -0.7216 C   0  0  0  0  0  0  0  0  0  0  0  0
   15.3573   -2.3911   -1.7364 C   0  0  0  0  0  0  0  0  0  0  0  0
   15.9023   -2.7860   -2.9720 C   0  0  0  0  0  0  0  0  0  0  0  0
   15.9483   -3.8365   -3.2402 H   0  0  0  0  0  0  0  0  0  0  0  0
   16.3935   -1.8273   -3.8701 C   0  0  0  0  0  0  0  0  0  0  0  0
   16.8241   -2.1280   -4.8202 H   0  0  0  0  0  0  0  0  0  0  0  0
   16.3356   -0.4674   -3.5492 C   0  0  0  0  0  0  0  0  0  0  0  0
   16.7272    0.2794   -4.2344 H   0  0  0  0  0  0  0  0  0  0  0  0
   15.7728   -0.0629   -2.3346 C   0  0  0  0  0  0  0  0  0  0  0  0
   15.7122    0.9879   -2.0669 H   0  0  0  0  0  0  0  0  0  0  0  0
   15.2828   -1.0210   -1.4448 C   0  0  0  0  0  0  0  0  0  0  0  0
   14.8391   -0.7093   -0.5029 H   0  0  0  0  0  0  0  0  0  0  0  0
   13.2959   -3.1353   -0.5260 C   0  0  0  0  0  0  0  0  0  0  0  0
   12.4001   -3.3210   -1.3505 O   0  0  0  0  0  0  0  0  0  0  0  0
   13.0639   -2.6898    0.7603 N   0  0  0  0  0  0  0  0  0  0  0  0
   11.7783   -2.2847    1.3341 C   0  0  0  0  0  0  0  0  0  0  0  0
   11.7982   -1.2193    1.5963 H   0  0  0  0  0  0  0  0  0  0  0  0
   10.9589   -2.4486    0.6216 H   0  0  0  0  0  0  0  0  0  0  0  0
   11.5619   -2.8662    2.2394 H   0  0  0  0  0  0  0  0  0  0  0  0
   14.2906   -2.6280    1.3835 C   0  0  0  0  0  0  0  0  0  0  0  0
   14.5205   -2.1879    2.6502 N   0  0  0  0  0  0  0  0  0  0  0  0
   15.4472   -2.3492    3.0387 H   0  0  0  0  0  0  0  0  0  0  0  0
   13.7213   -2.0826    3.2713 H   0  0  0  0  0  0  0  0  0  0  0  0
   15.2651   -3.0311    0.6379 N   0  0  0  0  0  4  0  0  0  0  0  0
   16.2407   -3.0664    0.9374 H   0  0  0  0  0  0  0  0  0  0  0  0
   14.1383   -5.6763   -1.4858 C   0  0  0  0  0  0  0  0  0  0  0  0
   13.1601   -5.2440   -1.6789 H   0  0  0  0  0  0  0  0  0  0  0  0
   11.9223   -7.5721   -1.7869 C   0  0  0  0  0  0  0  0  0  0  0  0
   11.7203   -6.5992   -1.3485 H   0  0  0  0  0  0  0  0  0  0  0  0
   10.8749   -8.4411   -2.0457 C   0  0  0  0  0  0  0  0  0  0  0  0
    9.8464   -8.1451   -1.8360 H   0  0  0  0  0  0  0  0  0  0  0  0
   11.1876   -9.6835   -2.5952 C   0  0  0  0  0  0  0  0  0  0  0  0
   10.1101  -10.6604   -2.9233 C   0  0  0  0  0  0  0  0  0  0  0  0
    9.1054  -10.5572   -2.0146 F   0  0  0  0  0  0  0  0  0  0  0  0
   10.6075  -11.9212   -2.8775 F   0  0  0  0  0  0  0  0  0  0  0  0
    9.6169  -10.3989   -4.1614 F   0  0  0  0  0  0  0  0  0  0  0  0
  1  2  1  0
  2  3  2  0
  3  4  1  0
  4  5  1  0
  5  6  2  0
  6  7  1  0
  6  8  1  0
  8  9  1  0
  8 10  2  0
 10 11  1  0
 10 12  1  0
 12 13  1  0
 13 14  1  0
 14 15  2  0
 15 16  1  0
 15 17  1  0
 17 18  1  0
 17 19  2  0
 19 20  1  0
 19 21  1  0
 21 22  1  0
 21 23  2  0
 23 24  1  0
 13 25  1  0
 25 26  2  0
 25 27  1  0
 27 28  1  0
 28 29  1  0
 28 30  1  0
 28 31  1  0
 27 32  1  0
 32 33  1  0
 33 34  1  0
 33 35  1  0
 32 36  2  0
 36 37  1  0
 12 38  2  0
 38 39  1  0
  4 40  2  0
 40 41  1  0
 40 42  1  0
 42 43  1  0
 42 44  2  0
 44 45  1  0
 45 46  1  0
 45 47  1  0
 45 48  1  0
 44  2  1  0
 38  5  1  0
 36 13  1  0
 23 14  1  0
M  CHG  1  36   1
M  END
>  <score>  (289) 
5.40494

$$$$

     RDKit          3D

 43 45  0  0  0  0  0  0  0  0999 V2000
   16.1255   -8.4894   -1.6110 H   0  0  0  0  0  0  0  0  0  0  0  0
   15.8540   -7.4452   -1.4698 C   0  0  0  0  0  0  0  0  0  0  0  0
   16.7270   -6.5860   -0.7995 C   0  0  0  0  0  0  0  0  0  0  0  0
   17.6753   -6.9557   -0.4191 H   0  0  0  0  0  0  0  0  0  0  0  0
   16.3853   -5.2430   -0.6085 C   0  0  0  0  0  0  0  0  0  0  0  0
   17.0697   -4.5948   -0.0691 H   0  0  0  0  0  0  0  0  0  0  0  0
   15.1668   -4.7196   -1.0738 C   0  0  0  0  0  0  0  0  0  0  0  0
   14.8097   -3.2510   -0.7876 C   0  0  0  0  0  0  0  0  0  0  0  0
   15.3880   -2.2430   -1.7826 C   0  0  0  0  0  0  0  0  0  0  0  0
   15.9423   -2.6399   -3.0107 C   0  0  0  0  0  0  0  0  0  0  0  0
   16.0052   -3.6950   -3.2671 H   0  0  0  0  0  0  0  0  0  0  0  0
   16.4216   -1.6869   -3.9166 C   0  0  0  0  0  0  0  0  0  0  0  0
   16.8569   -2.0026   -4.8597 H   0  0  0  0  0  0  0  0  0  0  0  0
   16.3416   -0.3250   -3.6218 C   0  0  0  0  0  0  0  0  0  0  0  0
   16.7125    0.3906   -4.3553 H   0  0  0  0  0  0  0  0  0  0  0  0
   15.7759    0.1080   -2.4074 C   0  0  0  0  0  0  0  0  0  0  0  0
   15.7036    1.5537   -2.0925 C   0  0  0  0  0  0  0  0  0  0  0  0
   16.4587    2.3475   -2.6313 O   0  0  0  0  0  0  0  0  0  0  0  0
   14.8016    2.0792   -1.1887 N   0  0  0  0  0  0  0  0  0  0  0  0
   14.0969    1.4493   -0.8304 H   0  0  0  0  0  0  0  0  0  0  0  0
   14.7962    3.4770   -0.7475 C   0  0  0  0  0  0  0  0  0  0  0  0
   13.9777    3.6649   -0.0456 H   0  0  0  0  0  0  0  0  0  0  0  0
   15.7345    3.7164   -0.2389 H   0  0  0  0  0  0  0  0  0  0  0  0
   14.6756    4.1527   -1.5994 H   0  0  0  0  0  0  0  0  0  0  0  0
   15.3170   -0.8655   -1.4990 C   0  0  0  0  0  0  0  0  0  0  0  0
   14.9068   -0.5516   -0.5433 H   0  0  0  0  0  0  0  0  0  0  0  0
   13.2926   -3.0267   -0.6071 C   0  0  0  0  0  0  0  0  0  0  0  0
   12.4251   -3.0811   -1.4751 O   0  0  0  0  0  0  0  0  0  0  0  0
   13.0218   -2.6714    0.7001 N   0  0  0  0  0  0  0  0  0  0  0  0
   11.7179   -2.3128    1.2629 C   0  0  0  0  0  0  0  0  0  0  0  0
   11.5018   -2.9189    2.1472 H   0  0  0  0  0  0  0  0  0  0  0  0
   11.6926   -1.2595    1.5587 H   0  0  0  0  0  0  0  0  0  0  0  0
   10.9140   -2.4768    0.5392 H   0  0  0  0  0  0  0  0  0  0  0  0
   14.2241   -2.6298    1.3652 C   0  0  0  0  0  0  0  0  0  0  0  0
   14.3939   -2.3363    2.6900 N   0  0  0  0  0  0  0  0  0  0  0  0
   13.5798   -2.1271    3.2662 H   0  0  0  0  0  0  0  0  0  0  0  0
   15.3268   -2.3574    3.0948 H   0  0  0  0  0  0  0  0  0  0  0  0
   15.2211   -2.9038    0.5899 N   0  0  0  0  0  4  0  0  0  0  0  0
   16.1899   -2.9001    0.8978 H   0  0  0  0  0  0  0  0  0  0  0  0
   14.3006   -5.5955   -1.7687 C   0  0  0  0  0  0  0  0  0  0  0  0
   13.3523   -5.2449   -2.1671 H   0  0  0  0  0  0  0  0  0  0  0  0
   14.6428   -6.9466   -1.9603 C   0  0  0  0  0  0  0  0  0  0  0  0
   13.9730   -7.6204   -2.4887 H   0  0  0  0  0  0  0  0  0  0  0  0
  1  2  1  0
  2  3  2  0
  3  4  1  0
  3  5  1  0
  5  6  1  0
  5  7  2  0
  7  8  1  0
  8  9  1  0
  9 10  2  0
 10 11  1  0
 10 12  1  0
 12 13  1  0
 12 14  2  0
 14 15  1  0
 14 16  1  0
 16 17  1  0
 17 18  2  0
 17 19  1  0
 19 20  1  0
 19 21  1  0
 21 22  1  0
 21 23  1  0
 21 24  1  0
 16 25  2  0
 25 26  1  0
  8 27  1  0
 27 28  2  0
 27 29  1  0
 29 30  1  0
 30 31  1  0
 30 32  1  0
 30 33  1  0
 29 34  1  0
 34 35  1  0
 35 36  1  0
 35 37  1  0
 34 38  2  0
 38 39  1  0
  7 40  1  0
 40 41  1  0
 40 42  2  0
 42 43  1  0
 42  2  1  0
 38  8  1  0
 25  9  1  0
M  CHG  1  38   1
M  END
>  <score>  (290) 
5.40185

$$$$

     RDKit          3D

 52 54  0  0  0  0  0  0  0  0999 V2000
   16.1075   -8.2705   -1.6883 H   0  0  0  0  0  0  0  0  0  0  0  0
   15.8877   -7.2185   -1.5224 C   0  0  0  0  0  0  0  0  0  0  0  0
   16.7913   -6.4086   -0.8264 C   0  0  0  0  0  0  0  0  0  0  0  0
   17.7216   -6.8346   -0.4573 H   0  0  0  0  0  0  0  0  0  0  0  0
   16.4830   -5.0604   -0.5812 C   0  0  0  0  0  0  0  0  0  0  0  0
   17.1858   -4.4544   -0.0182 H   0  0  0  0  0  0  0  0  0  0  0  0
   15.2692   -4.4995   -1.0262 C   0  0  0  0  0  0  0  0  0  0  0  0
   14.8631   -3.0622   -0.6876 C   0  0  0  0  0  0  0  0  0  0  0  0
   15.2900   -2.0081   -1.7105 C   0  0  0  0  0  0  0  0  0  0  0  0
   16.1058   -2.3374   -2.8062 C   0  0  0  0  0  0  0  0  0  0  0  0
   16.4440   -3.3623   -2.9138 H   0  0  0  0  0  0  0  0  0  0  0  0
   16.4231   -1.3811   -3.7793 C   0  0  0  0  0  0  0  0  0  0  0  0
   17.0047   -1.6489   -4.6572 H   0  0  0  0  0  0  0  0  0  0  0  0
   15.9691   -0.0703   -3.6535 C   0  0  0  0  0  0  0  0  0  0  0  0
   16.2081    0.6534   -4.4304 H   0  0  0  0  0  0  0  0  0  0  0  0
   15.1453    0.2850   -2.5741 C   0  0  0  0  0  0  0  0  0  0  0  0
   14.5935    1.6454   -2.5157 C   0  0  0  0  0  0  0  0  0  0  0  0
   13.3755    1.7889   -2.5138 O   0  0  0  0  0  0  0  0  0  0  0  0
   15.4223    2.7672   -2.5658 N   0  0  0  0  0  0  0  0  0  0  0  0
   16.8340    2.6106   -2.2296 C   0  0  0  0  0  0  0  0  0  0  0  0
   17.3894    3.5287   -2.4462 H   0  0  0  0  0  0  0  0  0  0  0  0
   17.3278    1.8056   -2.7853 H   0  0  0  0  0  0  0  0  0  0  0  0
   16.8806    2.3303   -0.7406 C   0  0  0  0  0  0  0  0  0  0  0  0
   17.8937    2.4716   -0.3866 H   0  0  0  0  0  0  0  0  0  0  0  0
   16.2450    3.0372   -0.2045 H   0  0  0  0  0  0  0  0  0  0  0  0
   16.5468    1.3078   -0.5204 H   0  0  0  0  0  0  0  0  0  0  0  0
   14.8508    4.1103   -2.4940 C   0  0  0  0  0  0  0  0  0  0  0  0
   13.7627    4.0523   -2.5553 H   0  0  0  0  0  0  0  0  0  0  0  0
   15.1976    4.6941   -3.3476 H   0  0  0  0  0  0  0  0  0  0  0  0
   15.2481    4.8250   -1.2095 C   0  0  0  0  0  0  0  0  0  0  0  0
   14.8677    4.2906   -0.3348 H   0  0  0  0  0  0  0  0  0  0  0  0
   14.8432    5.8389   -1.2064 H   0  0  0  0  0  0  0  0  0  0  0  0
   16.3380    4.8797   -1.1451 H   0  0  0  0  0  0  0  0  0  0  0  0
   14.8008   -0.6895   -1.6197 C   0  0  0  0  0  0  0  0  0  0  0  0
   14.1152   -0.4250   -0.8136 H   0  0  0  0  0  0  0  0  0  0  0  0
   13.3412   -2.9643   -0.4440 C   0  0  0  0  0  0  0  0  0  0  0  0
   12.4374   -3.2186   -1.2365 O   0  0  0  0  0  0  0  0  0  0  0  0
   13.1024   -2.5526    0.8480 N   0  0  0  0  0  0  0  0  0  0  0  0
   11.7915   -2.2533    1.4266 C   0  0  0  0  0  0  0  0  0  0  0  0
   10.9952   -2.4628    0.7014 H   0  0  0  0  0  0  0  0  0  0  0  0
   11.6041   -2.8623    2.3186 H   0  0  0  0  0  0  0  0  0  0  0  0
   11.7261   -1.1945    1.7015 H   0  0  0  0  0  0  0  0  0  0  0  0
   14.3275   -2.4560    1.4706 C   0  0  0  0  0  0  0  0  0  0  0  0
   14.5015   -2.1547    2.7850 N   0  0  0  0  0  0  0  0  0  0  0  0
   13.6879   -2.0542    3.3904 H   0  0  0  0  0  0  0  0  0  0  0  0
   15.4402   -2.1827    3.1817 H   0  0  0  0  0  0  0  0  0  0  0  0
   15.3172   -2.7064    0.6724 N   0  0  0  0  0  4  0  0  0  0  0  0
   16.2886   -2.7790    0.9823 H   0  0  0  0  0  0  0  0  0  0  0  0
   14.3888   -5.3270   -1.7464 C   0  0  0  0  0  0  0  0  0  0  0  0
   13.4454   -4.9291   -2.1041 H   0  0  0  0  0  0  0  0  0  0  0  0
   14.6888   -6.6734   -1.9892 C   0  0  0  0  0  0  0  0  0  0  0  0
   13.9810   -7.3023   -2.5223 H   0  0  0  0  0  0  0  0  0  0  0  0
  1  2  1  0
  2  3  2  0
  3  4  1  0
  3  5  1  0
  5  6  1  0
  5  7  2  0
  7  8  1  0
  8  9  1  0
  9 10  2  0
 10 11  1  0
 10 12  1  0
 12 13  1  0
 12 14  2  0
 14 15  1  0
 14 16  1  0
 16 17  1  0
 17 18  2  0
 17 19  1  0
 19 20  1  0
 20 21  1  0
 20 22  1  0
 20 23  1  0
 23 24  1  0
 23 25  1  0
 23 26  1  0
 19 27  1  0
 27 28  1  0
 27 29  1  0
 27 30  1  0
 30 31  1  0
 30 32  1  0
 30 33  1  0
 16 34  2  0
 34 35  1  0
  8 36  1  0
 36 37  2  0
 36 38  1  0
 38 39  1  0
 39 40  1  0
 39 41  1  0
 39 42  1  0
 38 43  1  0
 43 44  1  0
 44 45  1  0
 44 46  1  0
 43 47  2  0
 47 48  1  0
  7 49  1  0
 49 50  1  0
 49 51  2  0
 51 52  1  0
 51  2  1  0
 47  8  1  0
 34  9  1  0
M  CHG  1  47   1
M  END
>  <score>  (291) 
5.40149

$$$$

     RDKit          3D

 60 62  0  0  0  0  0  0  0  0999 V2000
   16.1297   -8.3778   -1.7352 H   0  0  0  0  0  0  0  0  0  0  0  0
   15.8972   -7.3362   -1.5322 C   0  0  0  0  0  0  0  0  0  0  0  0
   16.7996   -6.5371   -0.8244 C   0  0  0  0  0  0  0  0  0  0  0  0
   17.7427   -6.9549   -0.4822 H   0  0  0  0  0  0  0  0  0  0  0  0
   16.4860   -5.2004   -0.5434 C   0  0  0  0  0  0  0  0  0  0  0  0
   17.1937   -4.5937    0.0129 H   0  0  0  0  0  0  0  0  0  0  0  0
   15.2647   -4.6419   -0.9637 C   0  0  0  0  0  0  0  0  0  0  0  0
   14.8979   -3.1904   -0.6445 C   0  0  0  0  0  0  0  0  0  0  0  0
   15.3916   -2.1990   -1.6961 C   0  0  0  0  0  0  0  0  0  0  0  0
   15.9597   -2.6457   -2.9012 C   0  0  0  0  0  0  0  0  0  0  0  0
   16.0748   -3.7113   -3.0782 H   0  0  0  0  0  0  0  0  0  0  0  0
   16.3749   -1.7353   -3.8769 C   0  0  0  0  0  0  0  0  0  0  0  0
   16.8224   -2.0892   -4.7996 H   0  0  0  0  0  0  0  0  0  0  0  0
   16.2149   -0.3636   -3.6692 C   0  0  0  0  0  0  0  0  0  0  0  0
   16.5531    0.3402   -4.4238 H   0  0  0  0  0  0  0  0  0  0  0  0
   15.6319    0.1150   -2.4890 C   0  0  0  0  0  0  0  0  0  0  0  0
   15.4903    1.6088   -2.2777 C   0  0  0  0  0  0  0  0  0  0  0  0
   16.0293    1.8866   -1.3657 H   0  0  0  0  0  0  0  0  0  0  0  0
   15.9625    2.1390   -3.1115 H   0  0  0  0  0  0  0  0  0  0  0  0
   14.0320    2.0808   -2.1471 C   0  0  0  0  0  0  0  0  0  0  0  0
   14.0157    3.1721   -2.0506 H   0  0  0  0  0  0  0  0  0  0  0  0
   13.6031    1.6692   -1.2265 H   0  0  0  0  0  0  0  0  0  0  0  0
   13.1405    1.6661   -3.3285 C   0  0  0  0  0  0  0  0  0  0  0  0
   13.1613    0.5766   -3.4232 H   0  0  0  0  0  0  0  0  0  0  0  0
   12.1115    1.9596   -3.1012 H   0  0  0  0  0  0  0  0  0  0  0  0
   13.5437    2.2576   -4.6895 C   0  0  0  0  0  0  0  0  0  0  0  0
   14.5252    1.8668   -4.9755 H   0  0  0  0  0  0  0  0  0  0  0  0
   12.8064    1.9438   -5.4361 H   0  0  0  0  0  0  0  0  0  0  0  0
   13.6166    3.7829   -4.7210 C   0  0  0  0  0  0  0  0  0  0  0  0
   13.9062    4.0985   -5.7313 H   0  0  0  0  0  0  0  0  0  0  0  0
   14.3829    4.1319   -4.0257 H   0  0  0  0  0  0  0  0  0  0  0  0
   12.2822    4.4341   -4.3693 C   0  0  0  0  0  0  0  0  0  0  0  0
   11.6084    4.3515   -5.2301 H   0  0  0  0  0  0  0  0  0  0  0  0
   11.8349    3.9134   -3.5125 H   0  0  0  0  0  0  0  0  0  0  0  0
   12.4924    5.9144   -4.0084 C   0  0  0  0  0  0  0  0  0  0  0  0
   11.5416    6.3802   -3.7259 H   0  0  0  0  0  0  0  0  0  0  0  0
   13.1605    5.9876   -3.1467 H   0  0  0  0  0  0  0  0  0  0  0  0
   13.1168    6.6890   -5.1676 C   0  0  0  0  0  0  0  0  0  0  0  0
   12.4126    6.7861   -5.9971 H   0  0  0  0  0  0  0  0  0  0  0  0
   13.4077    7.6934   -4.8435 H   0  0  0  0  0  0  0  0  0  0  0  0
   14.0088    6.1657   -5.5221 H   0  0  0  0  0  0  0  0  0  0  0  0
   15.2273   -0.8090   -1.5098 C   0  0  0  0  0  0  0  0  0  0  0  0
   14.7811   -0.4379   -0.5910 H   0  0  0  0  0  0  0  0  0  0  0  0
   13.3797   -3.0123   -0.4473 C   0  0  0  0  0  0  0  0  0  0  0  0
   12.4941   -3.2465   -1.2653 O   0  0  0  0  0  0  0  0  0  0  0  0
   13.1262   -2.5646    0.8347 N   0  0  0  0  0  0  0  0  0  0  0  0
   11.8108   -2.2529    1.3966 C   0  0  0  0  0  0  0  0  0  0  0  0
   11.6128   -2.8589    2.2888 H   0  0  0  0  0  0  0  0  0  0  0  0
   11.0210   -2.4609    0.6650 H   0  0  0  0  0  0  0  0  0  0  0  0
   11.7465   -1.1934    1.6707 H   0  0  0  0  0  0  0  0  0  0  0  0
   14.3401   -2.4773    1.4788 C   0  0  0  0  0  0  0  0  0  0  0  0
   14.5155   -2.0992    2.7766 N   0  0  0  0  0  0  0  0  0  0  0  0
   13.6980   -2.0652    3.3851 H   0  0  0  0  0  0  0  0  0  0  0  0
   15.4363   -2.2358    3.1884 H   0  0  0  0  0  0  0  0  0  0  0  0
   15.3329   -2.8133    0.7174 N   0  0  0  0  0  4  0  0  0  0  0  0
   16.3025   -2.8646    1.0358 H   0  0  0  0  0  0  0  0  0  0  0  0
   14.3825   -5.4527   -1.7018 C   0  0  0  0  0  0  0  0  0  0  0  0
   13.4404   -5.0466   -2.0585 H   0  0  0  0  0  0  0  0  0  0  0  0
   14.6903   -6.7901   -1.9780 C   0  0  0  0  0  0  0  0  0  0  0  0
   13.9903   -7.4048   -2.5355 H   0  0  0  0  0  0  0  0  0  0  0  0
  1  2  1  0
  2  3  2  0
  3  4  1  0
  3  5  1  0
  5  6  1  0
  5  7  2  0
  7  8  1  0
  8  9  1  0
  9 10  2  0
 10 11  1  0
 10 12  1  0
 12 13  1  0
 12 14  2  0
 14 15  1  0
 14 16  1  0
 16 17  1  0
 17 18  1  0
 17 19  1  0
 17 20  1  0
 20 21  1  0
 20 22  1  0
 20 23  1  0
 23 24  1  0
 23 25  1  0
 23 26  1  0
 26 27  1  0
 26 28  1  0
 26 29  1  0
 29 30  1  0
 29 31  1  0
 29 32  1  0
 32 33  1  0
 32 34  1  0
 32 35  1  0
 35 36  1  0
 35 37  1  0
 35 38  1  0
 38 39  1  0
 38 40  1  0
 38 41  1  0
 16 42  2  0
 42 43  1  0
  8 44  1  0
 44 45  2  0
 44 46  1  0
 46 47  1  0
 47 48  1  0
 47 49  1  0
 47 50  1  0
 46 51  1  0
 51 52  1  0
 52 53  1  0
 52 54  1  0
 51 55  2  0
 55 56  1  0
  7 57  1  0
 57 58  1  0
 57 59  2  0
 59 60  1  0
 59  2  1  0
 55  8  1  0
 42  9  1  0
M  CHG  1  55   1
M  END
>  <score>  (292) 
5.39566

$$$$

     RDKit          3D

 49 52  0  0  0  0  0  0  0  0999 V2000
   10.2441  -11.7886   -3.6168 H   0  0  0  0  0  0  0  0  0  0  0  0
    9.9928  -10.7755   -3.2966 C   0  0  0  0  0  0  0  0  0  0  0  0
    8.7602  -10.2871   -3.5216 N   0  0  0  0  0  0  0  0  0  0  0  0
    8.4992   -9.0135   -3.1804 C   0  0  0  0  0  0  0  0  0  0  0  0
    7.5042   -8.6104   -3.3716 H   0  0  0  0  0  0  0  0  0  0  0  0
    9.4700   -8.1911   -2.6065 C   0  0  0  0  0  0  0  0  0  0  0  0
    9.2443   -7.1627   -2.3785 H   0  0  0  0  0  0  0  0  0  0  0  0
   10.7474   -8.6745   -2.3988 C   0  0  0  0  0  0  0  0  0  0  0  0
   11.7453   -7.8324   -1.9236 N   0  0  0  0  0  0  0  0  0  0  0  0
   11.4826   -6.9292   -1.5475 H   0  0  0  0  0  0  0  0  0  0  0  0
   13.0951   -8.0669   -2.1317 C   0  0  0  0  0  0  0  0  0  0  0  0
   13.4423   -9.0771   -2.7345 O   0  0  0  0  0  0  0  0  0  0  0  0
   14.1312   -7.1236   -1.6708 C   0  0  0  0  0  0  0  0  0  0  0  0
   15.4244   -7.6121   -1.4035 C   0  0  0  0  0  0  0  0  0  0  0  0
   15.6385   -8.6723   -1.5236 H   0  0  0  0  0  0  0  0  0  0  0  0
   16.4358   -6.7563   -0.9776 C   0  0  0  0  0  0  0  0  0  0  0  0
   17.4273   -7.1513   -0.7772 H   0  0  0  0  0  0  0  0  0  0  0  0
   16.1728   -5.3970   -0.8139 C   0  0  0  0  0  0  0  0  0  0  0  0
   16.9696   -4.7350   -0.4903 H   0  0  0  0  0  0  0  0  0  0  0  0
   14.8875   -4.8790   -1.0368 C   0  0  0  0  0  0  0  0  0  0  0  0
   14.6122   -3.4077   -0.7491 C   0  0  0  0  0  0  0  0  0  0  0  0
   15.2436   -2.4282   -1.7346 C   0  0  0  0  0  0  0  0  0  0  0  0
   15.8212   -2.8318   -2.9544 C   0  0  0  0  0  0  0  0  0  0  0  0
   15.8464   -3.8827   -3.2263 H   0  0  0  0  0  0  0  0  0  0  0  0
   16.3672   -1.8845   -3.8341 C   0  0  0  0  0  0  0  0  0  0  0  0
   16.8182   -2.1924   -4.7710 H   0  0  0  0  0  0  0  0  0  0  0  0
   16.3372   -0.5249   -3.5118 C   0  0  0  0  0  0  0  0  0  0  0  0
   16.7648    0.2100   -4.1883 H   0  0  0  0  0  0  0  0  0  0  0  0
   15.7556   -0.1106   -2.3122 C   0  0  0  0  0  0  0  0  0  0  0  0
   15.7263    0.9431   -2.0518 H   0  0  0  0  0  0  0  0  0  0  0  0
   15.2097   -1.0540   -1.4372 C   0  0  0  0  0  0  0  0  0  0  0  0
   14.7529   -0.7191   -0.5095 H   0  0  0  0  0  0  0  0  0  0  0  0
   13.1097   -3.0986   -0.5723 C   0  0  0  0  0  0  0  0  0  0  0  0
   12.2424   -3.1176   -1.4450 O   0  0  0  0  0  0  0  0  0  0  0  0
   12.8564   -2.7679    0.7453 N   0  0  0  0  0  0  0  0  0  0  0  0
   11.5800   -2.3134    1.3074 C   0  0  0  0  0  0  0  0  0  0  0  0
   11.3091   -2.9094    2.1877 H   0  0  0  0  0  0  0  0  0  0  0  0
   11.6505   -1.2617    1.6104 H   0  0  0  0  0  0  0  0  0  0  0  0
   10.7710   -2.4069    0.5712 H   0  0  0  0  0  0  0  0  0  0  0  0
   14.0681   -2.7870    1.4030 C   0  0  0  0  0  0  0  0  0  0  0  0
   14.2739   -2.4905    2.7210 N   0  0  0  0  0  0  0  0  0  0  0  0
   13.5223   -2.0239    3.2299 H   0  0  0  0  0  0  0  0  0  0  0  0
   15.2367   -2.3671    3.0342 H   0  0  0  0  0  0  0  0  0  0  0  0
   15.0503   -3.1208    0.6343 N   0  0  0  0  0  4  0  0  0  0  0  0
   16.0202   -3.1915    0.9497 H   0  0  0  0  0  0  0  0  0  0  0  0
   13.8706   -5.7505   -1.4735 C   0  0  0  0  0  0  0  0  0  0  0  0
   12.8747   -5.3464   -1.6524 H   0  0  0  0  0  0  0  0  0  0  0  0
   11.0026   -9.9906   -2.7538 C   0  0  0  0  0  0  0  0  0  0  0  0
   11.9906  -10.4142   -2.6462 H   0  0  0  0  0  0  0  0  0  0  0  0
  1  2  1  0
  2  3  2  0
  3  4  1  0
  4  5  1  0
  4  6  2  0
  6  7  1  0
  6  8  1  0
  8  9  1  0
  9 10  1  0
  9 11  1  0
 11 12  2  0
 11 13  1  0
 13 14  2  0
 14 15  1  0
 14 16  1  0
 16 17  1  0
 16 18  2  0
 18 19  1  0
 18 20  1  0
 20 21  1  0
 21 22  1  0
 22 23  2  0
 23 24  1  0
 23 25  1  0
 25 26  1  0
 25 27  2  0
 27 28  1  0
 27 29  1  0
 29 30  1  0
 29 31  2  0
 31 32  1  0
 21 33  1  0
 33 34  2  0
 33 35  1  0
 35 36  1  0
 36 37  1  0
 36 38  1  0
 36 39  1  0
 35 40  1  0
 40 41  1  0
 41 42  1  0
 41 43  1  0
 40 44  2  0
 44 45  1  0
 20 46  2  0
 46 47  1  0
  8 48  2  0
 48 49  1  0
 48  2  1  0
 46 13  1  0
 44 21  1  0
 31 22  1  0
M  CHG  1  44   1
M  END
>  <score>  (293) 
5.39559

$$$$

     RDKit          3D

 52 55  0  0  0  0  0  0  0  0999 V2000
   16.0794   -8.2774   -1.6538 H   0  0  0  0  0  0  0  0  0  0  0  0
   15.8710   -7.2215   -1.5002 C   0  0  0  0  0  0  0  0  0  0  0  0
   16.7847   -6.4111   -0.8168 C   0  0  0  0  0  0  0  0  0  0  0  0
   17.7138   -6.8387   -0.4466 H   0  0  0  0  0  0  0  0  0  0  0  0
   16.4923   -5.0570   -0.5890 C   0  0  0  0  0  0  0  0  0  0  0  0
   17.2044   -4.4475   -0.0411 H   0  0  0  0  0  0  0  0  0  0  0  0
   15.2820   -4.4922   -1.0350 C   0  0  0  0  0  0  0  0  0  0  0  0
   14.8869   -3.0487   -0.7129 C   0  0  0  0  0  0  0  0  0  0  0  0
   15.3310   -2.0163   -1.7513 C   0  0  0  0  0  0  0  0  0  0  0  0
   16.0820   -2.3937   -2.8753 C   0  0  0  0  0  0  0  0  0  0  0  0
   16.3811   -3.4328   -3.0001 H   0  0  0  0  0  0  0  0  0  0  0  0
   16.4084   -1.4552   -3.8564 C   0  0  0  0  0  0  0  0  0  0  0  0
   16.9716   -1.7483   -4.7341 H   0  0  0  0  0  0  0  0  0  0  0  0
   16.0085   -0.1271   -3.7292 C   0  0  0  0  0  0  0  0  0  0  0  0
   16.2696    0.5572   -4.5342 H   0  0  0  0  0  0  0  0  0  0  0  0
   15.2722    0.2858   -2.6072 C   0  0  0  0  0  0  0  0  0  0  0  0
   14.7638    2.0432   -2.4901 S   0  0  0  0  0  0  0  0  0  0  0  0
   14.4120    2.5943   -3.8089 O   0  0  0  0  0  0  0  0  0  0  0  0
   13.6774    2.2704   -1.5207 O   0  0  0  0  0  0  0  0  0  0  0  0
   16.1984    2.8924   -1.9365 N   0  0  0  0  0  0  0  0  0  0  0  0
   17.0236    2.2590   -0.8962 C   0  0  0  0  0  0  0  0  0  0  0  0
   18.0448    2.6315   -0.9956 H   0  0  0  0  0  0  0  0  0  0  0  0
   17.0434    1.1755   -1.0457 H   0  0  0  0  0  0  0  0  0  0  0  0
   16.5368    2.6263    0.5135 C   0  0  0  0  0  0  0  0  0  0  0  0
   15.5537    2.1906    0.6694 H   0  0  0  0  0  0  0  0  0  0  0  0
   17.2156    2.2039    1.2584 H   0  0  0  0  0  0  0  0  0  0  0  0
   16.4659    4.0511    0.6933 O   0  0  0  0  0  0  0  0  0  0  0  0
   15.6556    4.7069   -0.3050 C   0  0  0  0  0  0  0  0  0  0  0  0
   15.7588    5.7856   -0.1676 H   0  0  0  0  0  0  0  0  0  0  0  0
   14.6023    4.4520   -0.1609 H   0  0  0  0  0  0  0  0  0  0  0  0
   16.0637    4.3496   -1.7504 C   0  0  0  0  0  0  0  0  0  0  0  0
   15.3439    4.7874   -2.4567 H   0  0  0  0  0  0  0  0  0  0  0  0
   17.0341    4.8063   -1.9486 H   0  0  0  0  0  0  0  0  0  0  0  0
   14.9225   -0.6695   -1.6287 C   0  0  0  0  0  0  0  0  0  0  0  0
   14.3006   -0.4056   -0.7726 H   0  0  0  0  0  0  0  0  0  0  0  0
   13.3633   -2.9440   -0.4876 C   0  0  0  0  0  0  0  0  0  0  0  0
   12.4704   -3.1838   -1.2972 O   0  0  0  0  0  0  0  0  0  0  0  0
   13.1098   -2.5419    0.8040 N   0  0  0  0  0  0  0  0  0  0  0  0
   11.7881   -2.2653    1.3700 C   0  0  0  0  0  0  0  0  0  0  0  0
   11.7096   -1.2109    1.6567 H   0  0  0  0  0  0  0  0  0  0  0  0
   11.0036   -2.4739    0.6322 H   0  0  0  0  0  0  0  0  0  0  0  0
   11.5942   -2.8877    2.2510 H   0  0  0  0  0  0  0  0  0  0  0  0
   14.3259   -2.4609    1.4440 C   0  0  0  0  0  0  0  0  0  0  0  0
   14.4963   -2.2083    2.7704 N   0  0  0  0  0  0  0  0  0  0  0  0
   15.4357   -2.2174    3.1640 H   0  0  0  0  0  0  0  0  0  0  0  0
   13.6817   -2.0940    3.3723 H   0  0  0  0  0  0  0  0  0  0  0  0
   15.3271   -2.6882    0.6520 N   0  0  0  0  0  4  0  0  0  0  0  0
   16.2832   -2.8130    0.9878 H   0  0  0  0  0  0  0  0  0  0  0  0
   14.3937   -5.3174   -1.7484 C   0  0  0  0  0  0  0  0  0  0  0  0
   13.4572   -4.9116   -2.1167 H   0  0  0  0  0  0  0  0  0  0  0  0
   14.6780   -6.6689   -1.9740 C   0  0  0  0  0  0  0  0  0  0  0  0
   13.9633   -7.2927   -2.5042 H   0  0  0  0  0  0  0  0  0  0  0  0
  1  2  1  0
  2  3  2  0
  3  4  1  0
  3  5  1  0
  5  6  1  0
  5  7  2  0
  7  8  1  0
  8  9  1  0
  9 10  2  0
 10 11  1  0
 10 12  1  0
 12 13  1  0
 12 14  2  0
 14 15  1  0
 14 16  1  0
 16 17  1  0
 17 18  2  0
 17 19  2  0
 17 20  1  0
 20 21  1  0
 21 22  1  0
 21 23  1  0
 21 24  1  0
 24 25  1  0
 24 26  1  0
 24 27  1  0
 27 28  1  0
 28 29  1  0
 28 30  1  0
 28 31  1  0
 31 32  1  0
 31 33  1  0
 16 34  2  0
 34 35  1  0
  8 36  1  0
 36 37  2  0
 36 38  1  0
 38 39  1  0
 39 40  1  0
 39 41  1  0
 39 42  1  0
 38 43  1  0
 43 44  1  0
 44 45  1  0
 44 46  1  0
 43 47  2  0
 47 48  1  0
  7 49  1  0
 49 50  1  0
 49 51  2  0
 51 52  1  0
 51  2  1  0
 47  8  1  0
 34  9  1  0
 31 20  1  0
M  CHG  1  47   1
M  END
>  <score>  (294) 
5.39445

$$$$

     RDKit          3D

 44 46  0  0  0  0  0  0  0  0999 V2000
   16.1197   -8.4851   -1.6116 H   0  0  0  0  0  0  0  0  0  0  0  0
   15.8534   -7.4389   -1.4737 C   0  0  0  0  0  0  0  0  0  0  0  0
   16.7302   -6.5817   -0.8042 C   0  0  0  0  0  0  0  0  0  0  0  0
   17.6716   -6.9566   -0.4159 H   0  0  0  0  0  0  0  0  0  0  0  0
   16.3944   -5.2367   -0.6118 C   0  0  0  0  0  0  0  0  0  0  0  0
   17.0662   -4.5843   -0.0618 H   0  0  0  0  0  0  0  0  0  0  0  0
   15.1771   -4.7130   -1.0759 C   0  0  0  0  0  0  0  0  0  0  0  0
   14.8209   -3.2484   -0.7835 C   0  0  0  0  0  0  0  0  0  0  0  0
   15.3815   -2.2367   -1.7811 C   0  0  0  0  0  0  0  0  0  0  0  0
   15.9366   -2.6302   -3.0070 C   0  0  0  0  0  0  0  0  0  0  0  0
   15.9988   -3.6839   -3.2520 H   0  0  0  0  0  0  0  0  0  0  0  0
   16.4200   -1.6817   -3.9156 C   0  0  0  0  0  0  0  0  0  0  0  0
   16.8510   -1.9994   -4.8584 H   0  0  0  0  0  0  0  0  0  0  0  0
   16.3477   -0.3193   -3.6113 C   0  0  0  0  0  0  0  0  0  0  0  0
   16.6984    0.4322   -4.3089 H   0  0  0  0  0  0  0  0  0  0  0  0
   15.7879    0.1104   -2.4081 C   0  0  0  0  0  0  0  0  0  0  0  0
   15.7028    1.4829   -2.1158 N   0  0  0  0  0  0  0  0  0  0  0  0
   16.5415    2.4736   -2.8176 C   0  0  0  0  0  0  0  0  0  0  0  0
   16.4891    3.4494   -2.3256 H   0  0  0  0  0  0  0  0  0  0  0  0
   16.2095    2.6001   -3.8486 H   0  0  0  0  0  0  0  0  0  0  0  0
   17.5864    2.1596   -2.8203 H   0  0  0  0  0  0  0  0  0  0  0  0
   14.7971    1.9857   -1.0666 C   0  0  0  0  0  0  0  0  0  0  0  0
   13.7911    1.5769   -1.1891 H   0  0  0  0  0  0  0  0  0  0  0  0
   15.1739    1.7238   -0.0792 H   0  0  0  0  0  0  0  0  0  0  0  0
   14.7200    3.0747   -1.1093 H   0  0  0  0  0  0  0  0  0  0  0  0
   15.3084   -0.8549   -1.5123 C   0  0  0  0  0  0  0  0  0  0  0  0
   14.8959   -0.5018   -0.5763 H   0  0  0  0  0  0  0  0  0  0  0  0
   13.3109   -3.0179   -0.6040 C   0  0  0  0  0  0  0  0  0  0  0  0
   12.4414   -3.0888   -1.4688 O   0  0  0  0  0  0  0  0  0  0  0  0
   13.0275   -2.6747    0.7017 N   0  0  0  0  0  0  0  0  0  0  0  0
   11.7211   -2.3135    1.2617 C   0  0  0  0  0  0  0  0  0  0  0  0
   11.6956   -1.2620    1.5582 H   0  0  0  0  0  0  0  0  0  0  0  0
   11.5051   -2.9158    2.1467 H   0  0  0  0  0  0  0  0  0  0  0  0
   10.9126   -2.4747    0.5418 H   0  0  0  0  0  0  0  0  0  0  0  0
   14.2274   -2.6313    1.3659 C   0  0  0  0  0  0  0  0  0  0  0  0
   14.3968   -2.3286    2.6839 N   0  0  0  0  0  0  0  0  0  0  0  0
   13.5825   -2.1265    3.2592 H   0  0  0  0  0  0  0  0  0  0  0  0
   15.3334   -2.3523    3.0882 H   0  0  0  0  0  0  0  0  0  0  0  0
   15.2220   -2.9117    0.5985 N   0  0  0  0  0  4  0  0  0  0  0  0
   16.1891   -2.9172    0.9165 H   0  0  0  0  0  0  0  0  0  0  0  0
   14.3050   -5.5846   -1.7667 C   0  0  0  0  0  0  0  0  0  0  0  0
   13.3539   -5.2280   -2.1525 H   0  0  0  0  0  0  0  0  0  0  0  0
   14.6431   -6.9363   -1.9622 C   0  0  0  0  0  0  0  0  0  0  0  0
   13.9721   -7.6097   -2.4879 H   0  0  0  0  0  0  0  0  0  0  0  0
  1  2  1  0
  2  3  2  0
  3  4  1  0
  3  5  1  0
  5  6  1  0
  5  7  2  0
  7  8  1  0
  8  9  1  0
  9 10  2  0
 10 11  1  0
 10 12  1  0
 12 13  1  0
 12 14  2  0
 14 15  1  0
 14 16  1  0
 16 17  1  0
 17 18  1  0
 18 19  1  0
 18 20  1  0
 18 21  1  0
 17 22  1  0
 22 23  1  0
 22 24  1  0
 22 25  1  0
 16 26  2  0
 26 27  1  0
  8 28  1  0
 28 29  2  0
 28 30  1  0
 30 31  1  0
 31 32  1  0
 31 33  1  0
 31 34  1  0
 30 35  1  0
 35 36  1  0
 36 37  1  0
 36 38  1  0
 35 39  2  0
 39 40  1  0
  7 41  1  0
 41 42  1  0
 41 43  2  0
 43 44  1  0
 43  2  1  0
 39  8  1  0
 26  9  1  0
M  CHG  1  39   1
M  END
>  <score>  (295) 
5.39369

$$$$

     RDKit          3D

 46 49  0  0  0  0  0  0  0  0999 V2000
   14.4180   -9.4803   -2.7508 H   0  0  0  0  0  0  0  0  0  0  0  0
   13.4271   -9.0647   -2.6623 C   0  0  0  0  0  0  0  0  0  0  0  0
   12.3953   -9.8618   -3.0133 N   0  0  0  0  0  0  0  0  0  0  0  0
   11.1926   -9.3504   -2.7814 C   0  0  0  0  0  0  0  0  0  0  0  0
   10.2488  -10.2119   -3.2756 N   0  0  0  0  0  0  0  0  0  0  0  0
   10.7478  -10.8907   -3.8405 H   0  0  0  0  0  0  0  0  0  0  0  0
    9.4504   -9.7787   -3.7233 H   0  0  0  0  0  0  0  0  0  0  0  0
   10.9945   -8.0594   -2.2096 C   0  0  0  0  0  0  0  0  0  0  0  0
    9.9827   -7.6962   -2.0616 H   0  0  0  0  0  0  0  0  0  0  0  0
   12.0367   -7.2386   -1.9303 N   0  0  0  0  0  0  0  0  0  0  0  0
   13.2744   -7.7437   -2.1580 C   0  0  0  0  0  0  0  0  0  0  0  0
   14.4327   -6.9019   -1.7844 C   0  0  0  0  0  0  0  0  0  0  0  0
   15.6910   -7.4297   -1.4551 C   0  0  0  0  0  0  0  0  0  0  0  0
   15.8945   -8.4883   -1.5815 H   0  0  0  0  0  0  0  0  0  0  0  0
   16.6775   -6.6059   -0.8844 C   0  0  0  0  0  0  0  0  0  0  0  0
   17.6366   -7.0182   -0.5856 H   0  0  0  0  0  0  0  0  0  0  0  0
   16.4137   -5.2494   -0.6502 C   0  0  0  0  0  0  0  0  0  0  0  0
   17.1541   -4.6238   -0.1526 H   0  0  0  0  0  0  0  0  0  0  0  0
   15.1886   -4.6914   -1.0405 C   0  0  0  0  0  0  0  0  0  0  0  0
   14.8439   -3.2371   -0.7489 C   0  0  0  0  0  0  0  0  0  0  0  0
   15.4040   -2.2443   -1.7590 C   0  0  0  0  0  0  0  0  0  0  0  0
   15.9443   -2.6526   -2.9920 C   0  0  0  0  0  0  0  0  0  0  0  0
   15.9950   -3.7095   -3.2379 H   0  0  0  0  0  0  0  0  0  0  0  0
   16.4179   -1.7072   -3.9120 C   0  0  0  0  0  0  0  0  0  0  0  0
   16.8377   -2.0277   -4.8595 H   0  0  0  0  0  0  0  0  0  0  0  0
   16.3516   -0.3427   -3.6158 C   0  0  0  0  0  0  0  0  0  0  0  0
   16.7231    0.3895   -4.3273 H   0  0  0  0  0  0  0  0  0  0  0  0
   15.7997    0.0763   -2.4027 C   0  0  0  0  0  0  0  0  0  0  0  0
   15.7364    1.1336   -2.1660 H   0  0  0  0  0  0  0  0  0  0  0  0
   15.3251   -0.8674   -1.4869 C   0  0  0  0  0  0  0  0  0  0  0  0
   14.8900   -0.5319   -0.5494 H   0  0  0  0  0  0  0  0  0  0  0  0
   13.3243   -3.0254   -0.5801 C   0  0  0  0  0  0  0  0  0  0  0  0
   12.4556   -3.1445   -1.4445 O   0  0  0  0  0  0  0  0  0  0  0  0
   13.0502   -2.6765    0.7265 N   0  0  0  0  0  0  0  0  0  0  0  0
   11.7459   -2.3148    1.2803 C   0  0  0  0  0  0  0  0  0  0  0  0
   10.9476   -2.4824    0.5478 H   0  0  0  0  0  0  0  0  0  0  0  0
   11.5208   -2.9165    2.1681 H   0  0  0  0  0  0  0  0  0  0  0  0
   11.7326   -1.2564    1.5623 H   0  0  0  0  0  0  0  0  0  0  0  0
   14.2586   -2.6101    1.3853 C   0  0  0  0  0  0  0  0  0  0  0  0
   14.4314   -2.2688    2.6921 N   0  0  0  0  0  0  0  0  0  0  0  0
   15.3658   -2.3165    3.0963 H   0  0  0  0  0  0  0  0  0  0  0  0
   13.6154   -2.1220    3.2824 H   0  0  0  0  0  0  0  0  0  0  0  0
   15.2623   -2.9036    0.6275 N   0  0  0  0  0  4  0  0  0  0  0  0
   16.2284   -2.9636    0.9542 H   0  0  0  0  0  0  0  0  0  0  0  0
   14.2321   -5.5217   -1.6408 C   0  0  0  0  0  0  0  0  0  0  0  0
   13.2818   -5.0946   -1.9434 H   0  0  0  0  0  0  0  0  0  0  0  0
  1  2  1  0
  2  3  2  0
  3  4  1  0
  4  5  1  0
  5  6  1  0
  5  7  1  0
  4  8  2  0
  8  9  1  0
  8 10  1  0
 10 11  2  0
 11 12  1  0
 12 13  2  0
 13 14  1  0
 13 15  1  0
 15 16  1  0
 15 17  2  0
 17 18  1  0
 17 19  1  0
 19 20  1  0
 20 21  1  0
 21 22  2  0
 22 23  1  0
 22 24  1  0
 24 25  1  0
 24 26  2  0
 26 27  1  0
 26 28  1  0
 28 29  1  0
 28 30  2  0
 30 31  1  0
 20 32  1  0
 32 33  2  0
 32 34  1  0
 34 35  1  0
 35 36  1  0
 35 37  1  0
 35 38  1  0
 34 39  1  0
 39 40  1  0
 40 41  1  0
 40 42  1  0
 39 43  2  0
 43 44  1  0
 19 45  2  0
 45 46  1  0
 11  2  1  0
 45 12  1  0
 43 20  1  0
 30 21  1  0
M  CHG  1  43   1
M  END
>  <score>  (296) 
5.38814

$$$$

     RDKit          3D

 52 54  0  0  0  0  0  0  0  0999 V2000
   16.0954   -8.4178   -1.6506 H   0  0  0  0  0  0  0  0  0  0  0  0
   15.8584   -7.3707   -1.4906 C   0  0  0  0  0  0  0  0  0  0  0  0
   16.7562   -6.5462   -0.8039 C   0  0  0  0  0  0  0  0  0  0  0  0
   17.6926   -6.9456   -0.4255 H   0  0  0  0  0  0  0  0  0  0  0  0
   16.4432   -5.2011   -0.5880 C   0  0  0  0  0  0  0  0  0  0  0  0
   17.1399   -4.5670   -0.0458 H   0  0  0  0  0  0  0  0  0  0  0  0
   15.2212   -4.6699   -1.0323 C   0  0  0  0  0  0  0  0  0  0  0  0
   14.8411   -3.2303   -0.7281 C   0  0  0  0  0  0  0  0  0  0  0  0
   15.3774   -2.2243   -1.7408 C   0  0  0  0  0  0  0  0  0  0  0  0
   15.9318   -2.6394   -2.9623 C   0  0  0  0  0  0  0  0  0  0  0  0
   15.9844   -3.6992   -3.1979 H   0  0  0  0  0  0  0  0  0  0  0  0
   16.4179   -1.6993   -3.8763 C   0  0  0  0  0  0  0  0  0  0  0  0
   16.8453   -2.0292   -4.8186 H   0  0  0  0  0  0  0  0  0  0  0  0
   16.3519   -0.3355   -3.5852 C   0  0  0  0  0  0  0  0  0  0  0  0
   16.7524    0.3707   -4.3098 H   0  0  0  0  0  0  0  0  0  0  0  0
   15.7532    0.1163   -2.3955 C   0  0  0  0  0  0  0  0  0  0  0  0
   15.6300    1.5585   -2.1175 C   0  0  0  0  0  0  0  0  0  0  0  0
   16.4018    2.3647   -2.6253 O   0  0  0  0  0  0  0  0  0  0  0  0
   14.6449    2.0207   -1.2684 N   0  0  0  0  0  0  0  0  0  0  0  0
   14.2324    1.3042   -0.6827 H   0  0  0  0  0  0  0  0  0  0  0  0
   14.6842    3.3700   -0.7103 C   0  0  0  0  0  0  0  0  0  0  0  0
   13.7252    3.6204   -0.2499 H   0  0  0  0  0  0  0  0  0  0  0  0
   14.8812    4.1251   -1.4796 H   0  0  0  0  0  0  0  0  0  0  0  0
   15.8010    3.3272    0.3239 C   0  0  0  0  0  0  0  0  0  0  0  0
   15.5589    2.5512    1.0562 H   0  0  0  0  0  0  0  0  0  0  0  0
   16.7236    3.0480   -0.1971 H   0  0  0  0  0  0  0  0  0  0  0  0
   16.0735    4.6481    1.0546 C   0  0  0  0  0  0  0  0  0  0  0  0
   16.3359    5.4147    0.3186 H   0  0  0  0  0  0  0  0  0  0  0  0
   16.9249    4.4877    1.7318 H   0  0  0  0  0  0  0  0  0  0  0  0
   14.8843    5.1572    1.8729 C   0  0  0  0  0  0  0  0  0  0  0  0
   15.1742    6.0541    2.4355 H   0  0  0  0  0  0  0  0  0  0  0  0
   14.5510    4.3908    2.5814 H   0  0  0  0  0  0  0  0  0  0  0  0
   14.0583    5.4382    1.2138 H   0  0  0  0  0  0  0  0  0  0  0  0
   15.2700   -0.8456   -1.4849 C   0  0  0  0  0  0  0  0  0  0  0  0
   14.8081   -0.5297   -0.5527 H   0  0  0  0  0  0  0  0  0  0  0  0
   13.3194   -3.0569   -0.5512 C   0  0  0  0  0  0  0  0  0  0  0  0
   12.4519   -3.2112   -1.4082 O   0  0  0  0  0  0  0  0  0  0  0  0
   13.0538   -2.6727    0.7484 N   0  0  0  0  0  0  0  0  0  0  0  0
   11.7503   -2.3104    1.2995 C   0  0  0  0  0  0  0  0  0  0  0  0
   10.9520   -2.4810    0.5680 H   0  0  0  0  0  0  0  0  0  0  0  0
   11.7373   -1.2509    1.5760 H   0  0  0  0  0  0  0  0  0  0  0  0
   11.5259   -2.9075    2.1904 H   0  0  0  0  0  0  0  0  0  0  0  0
   14.2652   -2.5862    1.3993 C   0  0  0  0  0  0  0  0  0  0  0  0
   14.4508   -2.2259    2.6998 N   0  0  0  0  0  0  0  0  0  0  0  0
   15.3872   -2.2949    3.0958 H   0  0  0  0  0  0  0  0  0  0  0  0
   13.6418   -2.1217    3.3069 H   0  0  0  0  0  0  0  0  0  0  0  0
   15.2646   -2.8893    0.6440 N   0  0  0  0  0  4  0  0  0  0  0  0
   16.2234   -2.9982    0.9826 H   0  0  0  0  0  0  0  0  0  0  0  0
   14.3377   -5.5024   -1.7391 C   0  0  0  0  0  0  0  0  0  0  0  0
   13.3921   -5.1049   -2.0964 H   0  0  0  0  0  0  0  0  0  0  0  0
   14.6526   -6.8453   -1.9670 C   0  0  0  0  0  0  0  0  0  0  0  0
   13.9510   -7.4785   -2.5012 H   0  0  0  0  0  0  0  0  0  0  0  0
  1  2  1  0
  2  3  2  0
  3  4  1  0
  3  5  1  0
  5  6  1  0
  5  7  2  0
  7  8  1  0
  8  9  1  0
  9 10  2  0
 10 11  1  0
 10 12  1  0
 12 13  1  0
 12 14  2  0
 14 15  1  0
 14 16  1  0
 16 17  1  0
 17 18  2  0
 17 19  1  0
 19 20  1  0
 19 21  1  0
 21 22  1  0
 21 23  1  0
 21 24  1  0
 24 25  1  0
 24 26  1  0
 24 27  1  0
 27 28  1  0
 27 29  1  0
 27 30  1  0
 30 31  1  0
 30 32  1  0
 30 33  1  0
 16 34  2  0
 34 35  1  0
  8 36  1  0
 36 37  2  0
 36 38  1  0
 38 39  1  0
 39 40  1  0
 39 41  1  0
 39 42  1  0
 38 43  1  0
 43 44  1  0
 44 45  1  0
 44 46  1  0
 43 47  2  0
 47 48  1  0
  7 49  1  0
 49 50  1  0
 49 51  2  0
 51 52  1  0
 51  2  1  0
 47  8  1  0
 34  9  1  0
M  CHG  1  47   1
M  END
>  <score>  (297) 
5.38796

$$$$

     RDKit          3D

 50 53  0  0  0  0  0  0  0  0999 V2000
    8.8070   -6.6580    1.3533 H   0  0  0  0  0  0  0  0  0  0  0  0
    9.6761   -6.8594    0.7324 C   0  0  0  0  0  0  0  0  0  0  0  0
   10.4422   -8.0116    0.9307 C   0  0  0  0  0  0  0  0  0  0  0  0
   10.1918   -8.6939    1.7379 H   0  0  0  0  0  0  0  0  0  0  0  0
   11.5329   -8.2912    0.0899 C   0  0  0  0  0  0  0  0  0  0  0  0
   12.0985   -9.2063    0.2497 H   0  0  0  0  0  0  0  0  0  0  0  0
   11.8635   -7.4254   -0.9753 C   0  0  0  0  0  0  0  0  0  0  0  0
   12.9209   -7.7952   -2.0163 C   0  0  0  0  0  0  0  0  0  0  0  0
   12.5799   -8.6848   -2.5546 H   0  0  0  0  0  0  0  0  0  0  0  0
   13.0375   -7.0004   -2.7621 H   0  0  0  0  0  0  0  0  0  0  0  0
   14.2163   -8.1070   -1.4811 O   0  0  0  0  0  0  0  0  0  0  0  0
   15.0503   -7.0540   -1.1914 C   0  0  0  0  0  0  0  0  0  0  0  0
   16.3898   -7.3202   -0.8776 C   0  0  0  0  0  0  0  0  0  0  0  0
   16.7541   -8.3437   -0.8828 H   0  0  0  0  0  0  0  0  0  0  0  0
   17.2615   -6.2721   -0.5616 C   0  0  0  0  0  0  0  0  0  0  0  0
   18.3041   -6.4712   -0.3281 H   0  0  0  0  0  0  0  0  0  0  0  0
   16.7887   -4.9599   -0.5166 C   0  0  0  0  0  0  0  0  0  0  0  0
   17.4602   -4.1589   -0.2226 H   0  0  0  0  0  0  0  0  0  0  0  0
   15.4487   -4.6666   -0.8054 C   0  0  0  0  0  0  0  0  0  0  0  0
   14.9394   -3.2436   -0.6446 C   0  0  0  0  0  0  0  0  0  0  0  0
   15.4321   -2.2589   -1.7027 C   0  0  0  0  0  0  0  0  0  0  0  0
   15.9473   -2.6782   -2.9433 C   0  0  0  0  0  0  0  0  0  0  0  0
   16.0002   -3.7366   -3.1790 H   0  0  0  0  0  0  0  0  0  0  0  0
   16.4028   -1.7387   -3.8824 C   0  0  0  0  0  0  0  0  0  0  0  0
   16.8121   -2.0607   -4.8344 H   0  0  0  0  0  0  0  0  0  0  0  0
   16.3404   -0.3708   -3.6016 C   0  0  0  0  0  0  0  0  0  0  0  0
   16.7073    0.3568   -4.3212 H   0  0  0  0  0  0  0  0  0  0  0  0
   15.7998    0.0611   -2.3890 C   0  0  0  0  0  0  0  0  0  0  0  0
   15.7377    1.1226   -2.1668 H   0  0  0  0  0  0  0  0  0  0  0  0
   15.3433   -0.8763   -1.4561 C   0  0  0  0  0  0  0  0  0  0  0  0
   14.9221   -0.5253   -0.5185 H   0  0  0  0  0  0  0  0  0  0  0  0
   13.4109   -3.1534   -0.4894 C   0  0  0  0  0  0  0  0  0  0  0  0
   12.5611   -3.4349   -1.3349 O   0  0  0  0  0  0  0  0  0  0  0  0
   13.1107   -2.6848    0.7747 N   0  0  0  0  0  0  0  0  0  0  0  0
   11.7914   -2.3314    1.2939 C   0  0  0  0  0  0  0  0  0  0  0  0
   11.5626   -2.9130    2.1940 H   0  0  0  0  0  0  0  0  0  0  0  0
   11.7571   -1.2656    1.5494 H   0  0  0  0  0  0  0  0  0  0  0  0
   11.0096   -2.5297    0.5507 H   0  0  0  0  0  0  0  0  0  0  0  0
   14.3053   -2.5184    1.4404 C   0  0  0  0  0  0  0  0  0  0  0  0
   14.4636   -2.1352    2.7358 N   0  0  0  0  0  0  0  0  0  0  0  0
   15.3909   -2.2330    3.1474 H   0  0  0  0  0  0  0  0  0  0  0  0
   13.6442   -2.1204    3.3398 H   0  0  0  0  0  0  0  0  0  0  0  0
   15.3276   -2.7920    0.7051 N   0  0  0  0  0  4  0  0  0  0  0  0
   16.2784   -2.8703    1.0697 H   0  0  0  0  0  0  0  0  0  0  0  0
   14.6003   -5.7270   -1.1686 C   0  0  0  0  0  0  0  0  0  0  0  0
   13.5603   -5.5527   -1.4133 H   0  0  0  0  0  0  0  0  0  0  0  0
   11.1045   -6.2523   -1.1317 C   0  0  0  0  0  0  0  0  0  0  0  0
   11.3326   -5.5581   -1.9345 H   0  0  0  0  0  0  0  0  0  0  0  0
   10.0236   -5.9737   -0.2883 C   0  0  0  0  0  0  0  0  0  0  0  0
    9.4486   -5.0667   -0.4250 H   0  0  0  0  0  0  0  0  0  0  0  0
  1  2  1  0
  2  3  2  0
  3  4  1  0
  3  5  1  0
  5  6  1  0
  5  7  2  0
  7  8  1  0
  8  9  1  0
  8 10  1  0
  8 11  1  0
 11 12  1  0
 12 13  2  0
 13 14  1  0
 13 15  1  0
 15 16  1  0
 15 17  2  0
 17 18  1  0
 17 19  1  0
 19 20  1  0
 20 21  1  0
 21 22  2  0
 22 23  1  0
 22 24  1  0
 24 25  1  0
 24 26  2  0
 26 27  1  0
 26 28  1  0
 28 29  1  0
 28 30  2  0
 30 31  1  0
 20 32  1  0
 32 33  2  0
 32 34  1  0
 34 35  1  0
 35 36  1  0
 35 37  1  0
 35 38  1  0
 34 39  1  0
 39 40  1  0
 40 41  1  0
 40 42  1  0
 39 43  2  0
 43 44  1  0
 19 45  2  0
 45 46  1  0
  7 47  1  0
 47 48  1  0
 47 49  2  0
 49 50  1  0
 49  2  1  0
 45 12  1  0
 43 20  1  0
 30 21  1  0
M  CHG  1  43   1
M  END
>  <score>  (298) 
5.38473

$$$$

     RDKit          3D

 52 55  0  0  0  0  0  0  0  0999 V2000
   11.2269   -9.9421   -4.2129 H   0  0  0  0  0  0  0  0  0  0  0  0
   11.1036   -9.5022   -3.3473 O   0  0  0  0  0  0  0  0  0  0  0  0
   11.9980  -10.0375   -2.3808 C   0  0  0  0  0  0  0  0  0  0  0  0
   11.7359  -11.0828   -2.1925 H   0  0  0  0  0  0  0  0  0  0  0  0
   13.4344   -9.9962   -2.8927 C   0  0  0  0  0  0  0  0  0  0  0  0
   13.5063  -10.5038   -3.8587 H   0  0  0  0  0  0  0  0  0  0  0  0
   14.0647  -10.5266   -2.1776 H   0  0  0  0  0  0  0  0  0  0  0  0
   13.9860   -8.5892   -3.0330 C   0  0  0  0  0  0  0  0  0  0  0  0
   15.0775   -8.6307   -3.0134 H   0  0  0  0  0  0  0  0  0  0  0  0
   13.7062   -8.1887   -4.0091 H   0  0  0  0  0  0  0  0  0  0  0  0
   13.5763   -7.7091   -1.9274 N   0  0  0  0  0  0  0  0  0  0  0  0
   14.5484   -6.8494   -1.4146 C   0  0  0  0  0  0  0  0  0  0  0  0
   15.8322   -7.3118   -1.1207 C   0  0  0  0  0  0  0  0  0  0  0  0
   16.0243   -8.3720   -1.2192 H   0  0  0  0  0  0  0  0  0  0  0  0
   16.8386   -6.4275   -0.7045 C   0  0  0  0  0  0  0  0  0  0  0  0
   17.8418   -6.7894   -0.4896 H   0  0  0  0  0  0  0  0  0  0  0  0
   16.5481   -5.0648   -0.5797 C   0  0  0  0  0  0  0  0  0  0  0  0
   17.3319   -4.3771   -0.2714 H   0  0  0  0  0  0  0  0  0  0  0  0
   15.2499   -4.5885   -0.8324 C   0  0  0  0  0  0  0  0  0  0  0  0
   14.8940   -3.1263   -0.6337 C   0  0  0  0  0  0  0  0  0  0  0  0
   15.4335   -2.1785   -1.6986 C   0  0  0  0  0  0  0  0  0  0  0  0
   15.9476   -2.6312   -2.9294 C   0  0  0  0  0  0  0  0  0  0  0  0
   15.9839   -3.6962   -3.1451 H   0  0  0  0  0  0  0  0  0  0  0  0
   16.4120   -1.7144   -3.8846 C   0  0  0  0  0  0  0  0  0  0  0  0
   16.8180   -2.0598   -4.8292 H   0  0  0  0  0  0  0  0  0  0  0  0
   16.3575   -0.3405   -3.6265 C   0  0  0  0  0  0  0  0  0  0  0  0
   16.7278    0.3698   -4.3595 H   0  0  0  0  0  0  0  0  0  0  0  0
   15.8230    0.1196   -2.4214 C   0  0  0  0  0  0  0  0  0  0  0  0
   15.7665    1.1842   -2.2143 H   0  0  0  0  0  0  0  0  0  0  0  0
   15.3599   -0.7937   -1.4716 C   0  0  0  0  0  0  0  0  0  0  0  0
   14.9350   -0.4312   -0.5394 H   0  0  0  0  0  0  0  0  0  0  0  0
   13.3735   -2.9404   -0.4849 C   0  0  0  0  0  0  0  0  0  0  0  0
   12.5151   -3.1366   -1.3455 O   0  0  0  0  0  0  0  0  0  0  0  0
   13.0842   -2.5537    0.8047 N   0  0  0  0  0  0  0  0  0  0  0  0
   11.7527   -2.2738    1.3407 C   0  0  0  0  0  0  0  0  0  0  0  0
   10.9809   -2.4811    0.5885 H   0  0  0  0  0  0  0  0  0  0  0  0
   11.5492   -2.8976    2.2183 H   0  0  0  0  0  0  0  0  0  0  0  0
   11.6751   -1.2199    1.6289 H   0  0  0  0  0  0  0  0  0  0  0  0
   14.2841   -2.4807    1.4806 C   0  0  0  0  0  0  0  0  0  0  0  0
   14.4476   -2.2110    2.8041 N   0  0  0  0  0  0  0  0  0  0  0  0
   13.6320   -2.0994    3.4021 H   0  0  0  0  0  0  0  0  0  0  0  0
   15.3865   -2.2327    3.1999 H   0  0  0  0  0  0  0  0  0  0  0  0
   15.3046   -2.7264    0.7289 N   0  0  0  0  0  4  0  0  0  0  0  0
   16.2523   -2.8544    1.0905 H   0  0  0  0  0  0  0  0  0  0  0  0
   14.2616   -5.5032   -1.2407 C   0  0  0  0  0  0  0  0  0  0  0  0
   13.2532   -5.1737   -1.4524 H   0  0  0  0  0  0  0  0  0  0  0  0
   12.2355   -7.7619   -1.3178 C   0  0  0  0  0  0  0  0  0  0  0  0
   12.2317   -7.2275   -0.3570 H   0  0  0  0  0  0  0  0  0  0  0  0
   11.4956   -7.2737   -1.9574 H   0  0  0  0  0  0  0  0  0  0  0  0
   11.8737   -9.2292   -1.0882 C   0  0  0  0  0  0  0  0  0  0  0  0
   10.8597   -9.3232   -0.6956 H   0  0  0  0  0  0  0  0  0  0  0  0
   12.5514   -9.6334   -0.3339 H   0  0  0  0  0  0  0  0  0  0  0  0
  1  2  1  0
  2  3  1  0
  3  4  1  0
  3  5  1  0
  5  6  1  0
  5  7  1  0
  5  8  1  0
  8  9  1  0
  8 10  1  0
  8 11  1  0
 11 12  1  0
 12 13  2  0
 13 14  1  0
 13 15  1  0
 15 16  1  0
 15 17  2  0
 17 18  1  0
 17 19  1  0
 19 20  1  0
 20 21  1  0
 21 22  2  0
 22 23  1  0
 22 24  1  0
 24 25  1  0
 24 26  2  0
 26 27  1  0
 26 28  1  0
 28 29  1  0
 28 30  2  0
 30 31  1  0
 20 32  1  0
 32 33  2  0
 32 34  1  0
 34 35  1  0
 35 36  1  0
 35 37  1  0
 35 38  1  0
 34 39  1  0
 39 40  1  0
 40 41  1  0
 40 42  1  0
 39 43  2  0
 43 44  1  0
 19 45  2  0
 45 46  1  0
 11 47  1  0
 47 48  1  0
 47 49  1  0
 47 50  1  0
 50 51  1  0
 50 52  1  0
 50  3  1  0
 45 12  1  0
 43 20  1  0
 30 21  1  0
M  CHG  1  43   1
M  END
>  <score>  (299) 
5.38213

$$$$

     RDKit          3D

 45 47  0  0  0  0  0  0  0  0999 V2000
   16.1206   -8.4857   -1.6113 H   0  0  0  0  0  0  0  0  0  0  0  0
   15.8536   -7.4399   -1.4731 C   0  0  0  0  0  0  0  0  0  0  0  0
   16.7296   -6.5819   -0.8033 C   0  0  0  0  0  0  0  0  0  0  0  0
   17.6718   -6.9561   -0.4161 H   0  0  0  0  0  0  0  0  0  0  0  0
   16.3935   -5.2365   -0.6119 C   0  0  0  0  0  0  0  0  0  0  0  0
   17.0669   -4.5859   -0.0624 H   0  0  0  0  0  0  0  0  0  0  0  0
   15.1763   -4.7114   -1.0773 C   0  0  0  0  0  0  0  0  0  0  0  0
   14.8163   -3.2454   -0.7881 C   0  0  0  0  0  0  0  0  0  0  0  0
   15.3893   -2.2308   -1.7807 C   0  0  0  0  0  0  0  0  0  0  0  0
   15.9423   -2.6309   -3.0056 C   0  0  0  0  0  0  0  0  0  0  0  0
   16.0009   -3.6884   -3.2534 H   0  0  0  0  0  0  0  0  0  0  0  0
   16.4172   -1.6744   -3.9112 C   0  0  0  0  0  0  0  0  0  0  0  0
   16.8495   -1.9958   -4.8511 H   0  0  0  0  0  0  0  0  0  0  0  0
   16.3451   -0.3081   -3.6169 C   0  0  0  0  0  0  0  0  0  0  0  0
   16.7178    0.3973   -4.3575 H   0  0  0  0  0  0  0  0  0  0  0  0
   15.7962    0.1311   -2.3956 C   0  0  0  0  0  0  0  0  0  0  0  0
   15.7105    1.5791   -2.0469 C   0  0  0  0  0  0  0  0  0  0  0  0
   16.1199    2.4002   -2.8628 O   0  0  0  0  0  0  0  0  0  0  0  0
   15.1395    1.8958   -0.8481 O   0  0  0  0  0  0  0  0  0  0  0  0
   15.0894    3.2888   -0.4718 C   0  0  0  0  0  0  0  0  0  0  0  0
   14.7195    3.9272   -1.2790 H   0  0  0  0  0  0  0  0  0  0  0  0
   14.3809    3.3965    0.3502 H   0  0  0  0  0  0  0  0  0  0  0  0
   16.4415    3.8021    0.0036 C   0  0  0  0  0  0  0  0  0  0  0  0
   17.1666    3.7926   -0.8104 H   0  0  0  0  0  0  0  0  0  0  0  0
   16.8131    3.1832    0.8201 H   0  0  0  0  0  0  0  0  0  0  0  0
   16.3551    4.8265    0.3771 H   0  0  0  0  0  0  0  0  0  0  0  0
   15.3214   -0.8514   -1.4999 C   0  0  0  0  0  0  0  0  0  0  0  0
   14.8903   -0.5493   -0.5504 H   0  0  0  0  0  0  0  0  0  0  0  0
   13.3011   -3.0322   -0.6015 C   0  0  0  0  0  0  0  0  0  0  0  0
   12.4308   -3.0897   -1.4674 O   0  0  0  0  0  0  0  0  0  0  0  0
   13.0249   -2.6777    0.7041 N   0  0  0  0  0  0  0  0  0  0  0  0
   11.7192   -2.3134    1.2634 C   0  0  0  0  0  0  0  0  0  0  0  0
   11.6948   -1.2615    1.5598 H   0  0  0  0  0  0  0  0  0  0  0  0
   10.9123   -2.4734    0.5424 H   0  0  0  0  0  0  0  0  0  0  0  0
   11.5025   -2.9166    2.1476 H   0  0  0  0  0  0  0  0  0  0  0  0
   14.2260   -2.6280    1.3634 C   0  0  0  0  0  0  0  0  0  0  0  0
   14.3972   -2.3311    2.6840 N   0  0  0  0  0  0  0  0  0  0  0  0
   13.5825   -2.1267    3.2598 H   0  0  0  0  0  0  0  0  0  0  0  0
   15.3327   -2.3522    3.0900 H   0  0  0  0  0  0  0  0  0  0  0  0
   15.2209   -2.9002    0.5899 N   0  0  0  0  0  4  0  0  0  0  0  0
   16.1884   -2.9153    0.9061 H   0  0  0  0  0  0  0  0  0  0  0  0
   14.3048   -5.5858   -1.7676 C   0  0  0  0  0  0  0  0  0  0  0  0
   13.3537   -5.2309   -2.1546 H   0  0  0  0  0  0  0  0  0  0  0  0
   14.6432   -6.9375   -1.9619 C   0  0  0  0  0  0  0  0  0  0  0  0
   13.9723   -7.6111   -2.4875 H   0  0  0  0  0  0  0  0  0  0  0  0
  1  2  1  0
  2  3  2  0
  3  4  1  0
  3  5  1  0
  5  6  1  0
  5  7  2  0
  7  8  1  0
  8  9  1  0
  9 10  2  0
 10 11  1  0
 10 12  1  0
 12 13  1  0
 12 14  2  0
 14 15  1  0
 14 16  1  0
 16 17  1  0
 17 18  2  0
 17 19  1  0
 19 20  1  0
 20 21  1  0
 20 22  1  0
 20 23  1  0
 23 24  1  0
 23 25  1  0
 23 26  1  0
 16 27  2  0
 27 28  1  0
  8 29  1  0
 29 30  2  0
 29 31  1  0
 31 32  1  0
 32 33  1  0
 32 34  1  0
 32 35  1  0
 31 36  1  0
 36 37  1  0
 37 38  1  0
 37 39  1  0
 36 40  2  0
 40 41  1  0
  7 42  1  0
 42 43  1  0
 42 44  2  0
 44 45  1  0
 44  2  1  0
 40  8  1  0
 27  9  1  0
M  CHG  1  40   1
M  END
>  <score>  (300) 
5.37119

$$$$

     RDKit          3D

 43 45  0  0  0  0  0  0  0  0999 V2000
   16.0771   -8.4363   -1.7225 H   0  0  0  0  0  0  0  0  0  0  0  0
   15.8177   -7.3944   -1.5538 C   0  0  0  0  0  0  0  0  0  0  0  0
   16.6987   -6.5475   -0.8758 C   0  0  0  0  0  0  0  0  0  0  0  0
   17.6543   -6.9209   -0.5315 H   0  0  0  0  0  0  0  0  0  0  0  0
   16.3570   -5.2104   -0.6442 C   0  0  0  0  0  0  0  0  0  0  0  0
   17.0501   -4.5596   -0.1197 H   0  0  0  0  0  0  0  0  0  0  0  0
   15.1282   -4.6948   -1.0730 C   0  0  0  0  0  0  0  0  0  0  0  0
   14.7509   -3.2389   -0.7760 C   0  0  0  0  0  0  0  0  0  0  0  0
   15.3153   -2.2510   -1.7809 C   0  0  0  0  0  0  0  0  0  0  0  0
   15.9581   -2.6858   -2.9521 C   0  0  0  0  0  0  0  0  0  0  0  0
   16.0866   -3.7489   -3.1371 H   0  0  0  0  0  0  0  0  0  0  0  0
   16.4228   -1.7568   -3.8870 C   0  0  0  0  0  0  0  0  0  0  0  0
   16.9122   -2.0900   -4.7972 H   0  0  0  0  0  0  0  0  0  0  0  0
   16.2377   -0.3897   -3.6601 C   0  0  0  0  0  0  0  0  0  0  0  0
   16.5917    0.3328   -4.3869 H   0  0  0  0  0  0  0  0  0  0  0  0
   15.6026    0.0637   -2.4990 C   0  0  0  0  0  0  0  0  0  0  0  0
   15.3341    1.7899   -2.2396 S   0  0  0  0  0  0  0  0  0  0  0  0
   16.9413    2.1970   -1.4548 C   0  0  0  0  0  0  0  0  0  0  0  0
   16.9987    1.7008   -0.4829 H   0  0  0  0  0  0  0  0  0  0  0  0
   17.7528    1.8382   -2.0952 H   0  0  0  0  0  0  0  0  0  0  0  0
   17.0886    3.6967   -1.2505 C   0  0  0  0  0  0  0  0  0  0  0  0
   16.7704    4.2381   -2.1476 H   0  0  0  0  0  0  0  0  0  0  0  0
   16.4832    4.0147   -0.3963 H   0  0  0  0  0  0  0  0  0  0  0  0
   18.1338    3.9444   -1.0483 H   0  0  0  0  0  0  0  0  0  0  0  0
   15.1479   -0.8707   -1.5655 C   0  0  0  0  0  0  0  0  0  0  0  0
   14.6494   -0.5144   -0.6673 H   0  0  0  0  0  0  0  0  0  0  0  0
   13.2252   -3.0692   -0.6597 C   0  0  0  0  0  0  0  0  0  0  0  0
   12.4037   -3.2170   -1.5631 O   0  0  0  0  0  0  0  0  0  0  0  0
   12.8817   -2.7367    0.6359 N   0  0  0  0  0  0  0  0  0  0  0  0
   11.5521   -2.2784    1.0872 C   0  0  0  0  0  0  0  0  0  0  0  0
   11.5925   -1.2234    1.3901 H   0  0  0  0  0  0  0  0  0  0  0  0
   10.8190   -2.3665    0.2733 H   0  0  0  0  0  0  0  0  0  0  0  0
   11.1892   -2.8653    1.9410 H   0  0  0  0  0  0  0  0  0  0  0  0
   14.0606   -2.6425    1.3422 C   0  0  0  0  0  0  0  0  0  0  0  0
   14.1367   -2.4248    2.6884 N   0  0  0  0  0  0  0  0  0  0  0  0
   13.2757   -2.3080    3.2203 H   0  0  0  0  0  0  0  0  0  0  0  0
   15.0403   -2.2374    3.1147 H   0  0  0  0  0  0  0  0  0  0  0  0
   15.1070   -2.8476    0.6048 N   0  0  0  0  0  4  0  0  0  0  0  0
   16.0621   -2.8570    0.9621 H   0  0  0  0  0  0  0  0  0  0  0  0
   14.2502   -5.5566   -1.7660 C   0  0  0  0  0  0  0  0  0  0  0  0
   13.2942   -5.1878   -2.1242 H   0  0  0  0  0  0  0  0  0  0  0  0
   14.5933   -6.8963   -2.0015 C   0  0  0  0  0  0  0  0  0  0  0  0
   13.9045   -7.5431   -2.5377 H   0  0  0  0  0  0  0  0  0  0  0  0
  1  2  1  0
  2  3  2  0
  3  4  1  0
  3  5  1  0
  5  6  1  0
  5  7  2  0
  7  8  1  0
  8  9  1  0
  9 10  2  0
 10 11  1  0
 10 12  1  0
 12 13  1  0
 12 14  2  0
 14 15  1  0
 14 16  1  0
 16 17  1  0
 17 18  1  0
 18 19  1  0
 18 20  1  0
 18 21  1  0
 21 22  1  0
 21 23  1  0
 21 24  1  0
 16 25  2  0
 25 26  1  0
  8 27  1  0
 27 28  2  0
 27 29  1  0
 29 30  1  0
 30 31  1  0
 30 32  1  0
 30 33  1  0
 29 34  1  0
 34 35  1  0
 35 36  1  0
 35 37  1  0
 34 38  2  0
 38 39  1  0
  7 40  1  0
 40 41  1  0
 40 42  2  0
 42 43  1  0
 42  2  1  0
 38  8  1  0
 25  9  1  0
M  CHG  1  38   1
M  END
>  <score>  (301) 
5.36681

$$$$

     RDKit          3D

 45 48  0  0  0  0  0  0  0  0999 V2000
   11.7334   -7.3401   -1.3088 H   0  0  0  0  0  0  0  0  0  0  0  0
   12.2854   -8.0751   -1.8820 C   0  0  0  0  0  0  0  0  0  0  0  0
   11.5736   -9.5303   -2.5526 S   0  0  0  0  0  0  0  0  0  0  0  0
   13.1543   -9.9645   -3.1737 C   0  0  0  0  0  0  0  0  0  0  0  0
   13.4532  -11.2092   -3.9522 C   0  0  0  0  0  0  0  0  0  0  0  0
   13.9046  -10.9589   -4.9089 H   0  0  0  0  0  0  0  0  0  0  0  0
   14.1576  -11.7989   -3.3772 H   0  0  0  0  0  0  0  0  0  0  0  0
   12.5653  -11.8100   -4.1437 H   0  0  0  0  0  0  0  0  0  0  0  0
   14.0976   -9.1063   -2.8866 N   0  0  0  0  0  0  0  0  0  0  0  0
   13.6332   -8.0265   -2.1496 C   0  0  0  0  0  0  0  0  0  0  0  0
   14.5876   -7.0076   -1.6836 C   0  0  0  0  0  0  0  0  0  0  0  0
   15.8899   -7.4243   -1.3654 C   0  0  0  0  0  0  0  0  0  0  0  0
   16.1767   -8.4681   -1.4829 H   0  0  0  0  0  0  0  0  0  0  0  0
   16.8162   -6.5224   -0.8479 C   0  0  0  0  0  0  0  0  0  0  0  0
   17.8097   -6.8604   -0.5683 H   0  0  0  0  0  0  0  0  0  0  0  0
   16.4598   -5.1853   -0.6618 C   0  0  0  0  0  0  0  0  0  0  0  0
   17.1750   -4.4949   -0.2242 H   0  0  0  0  0  0  0  0  0  0  0  0
   15.1739   -4.7266   -0.9809 C   0  0  0  0  0  0  0  0  0  0  0  0
   14.8222   -3.2631   -0.7128 C   0  0  0  0  0  0  0  0  0  0  0  0
   15.3831   -2.2731   -1.7357 C   0  0  0  0  0  0  0  0  0  0  0  0
   15.9280   -2.6874   -2.9659 C   0  0  0  0  0  0  0  0  0  0  0  0
   15.9763   -3.7483   -3.2002 H   0  0  0  0  0  0  0  0  0  0  0  0
   16.4088   -1.7430   -3.8875 C   0  0  0  0  0  0  0  0  0  0  0  0
   16.8342   -2.0626   -4.8335 H   0  0  0  0  0  0  0  0  0  0  0  0
   16.3453   -0.3762   -3.5951 C   0  0  0  0  0  0  0  0  0  0  0  0
   16.7197    0.3524   -4.3087 H   0  0  0  0  0  0  0  0  0  0  0  0
   15.7986    0.0510   -2.3833 C   0  0  0  0  0  0  0  0  0  0  0  0
   15.7467    1.1119   -2.1517 H   0  0  0  0  0  0  0  0  0  0  0  0
   15.3195   -0.8911   -1.4667 C   0  0  0  0  0  0  0  0  0  0  0  0
   14.8953   -0.5464   -0.5280 H   0  0  0  0  0  0  0  0  0  0  0  0
   13.3099   -3.0434   -0.5275 C   0  0  0  0  0  0  0  0  0  0  0  0
   12.4283   -3.2036   -1.3721 O   0  0  0  0  0  0  0  0  0  0  0  0
   13.0567   -2.6258    0.7612 N   0  0  0  0  0  0  0  0  0  0  0  0
   11.7506   -2.2831    1.3276 C   0  0  0  0  0  0  0  0  0  0  0  0
   11.5412   -2.8893    2.2154 H   0  0  0  0  0  0  0  0  0  0  0  0
   10.9516   -2.4660    0.5993 H   0  0  0  0  0  0  0  0  0  0  0  0
   11.7147   -1.2256    1.6119 H   0  0  0  0  0  0  0  0  0  0  0  0
   14.2692   -2.5667    1.4150 C   0  0  0  0  0  0  0  0  0  0  0  0
   14.4600   -2.2062    2.7140 N   0  0  0  0  0  0  0  0  0  0  0  0
   15.3920   -2.2931    3.1170 H   0  0  0  0  0  0  0  0  0  0  0  0
   13.6513   -2.0996    3.3240 H   0  0  0  0  0  0  0  0  0  0  0  0
   15.2589   -2.9049    0.6548 N   0  0  0  0  0  4  0  0  0  0  0  0
   16.2285   -2.9517    0.9758 H   0  0  0  0  0  0  0  0  0  0  0  0
   14.2395   -5.6538   -1.4938 C   0  0  0  0  0  0  0  0  0  0  0  0
   13.2353   -5.3257   -1.7422 H   0  0  0  0  0  0  0  0  0  0  0  0
  1  2  1  0
  2  3  1  0
  3  4  1  0
  4  5  1  0
  5  6  1  0
  5  7  1  0
  5  8  1  0
  4  9  2  0
  9 10  1  0
 10 11  1  0
 11 12  2  0
 12 13  1  0
 12 14  1  0
 14 15  1  0
 14 16  2  0
 16 17  1  0
 16 18  1  0
 18 19  1  0
 19 20  1  0
 20 21  2  0
 21 22  1  0
 21 23  1  0
 23 24  1  0
 23 25  2  0
 25 26  1  0
 25 27  1  0
 27 28  1  0
 27 29  2  0
 29 30  1  0
 19 31  1  0
 31 32  2  0
 31 33  1  0
 33 34  1  0
 34 35  1  0
 34 36  1  0
 34 37  1  0
 33 38  1  0
 38 39  1  0
 39 40  1  0
 39 41  1  0
 38 42  2  0
 42 43  1  0
 18 44  2  0
 44 45  1  0
 10  2  2  0
 44 11  1  0
 42 19  1  0
 29 20  1  0
M  CHG  1  42   1
M  END
>  <score>  (302) 
5.3639

$$$$

     RDKit          3D

 45 48  0  0  0  0  0  0  0  0999 V2000
   16.0877   -8.4269   -1.6351 H   0  0  0  0  0  0  0  0  0  0  0  0
   15.8556   -7.3758   -1.4932 C   0  0  0  0  0  0  0  0  0  0  0  0
   16.7529   -6.5509   -0.8058 C   0  0  0  0  0  0  0  0  0  0  0  0
   17.6831   -6.9511   -0.4112 H   0  0  0  0  0  0  0  0  0  0  0  0
   16.4356   -5.2062   -0.5938 C   0  0  0  0  0  0  0  0  0  0  0  0
   17.1223   -4.5627   -0.0511 H   0  0  0  0  0  0  0  0  0  0  0  0
   15.2183   -4.6744   -1.0441 C   0  0  0  0  0  0  0  0  0  0  0  0
   14.8509   -3.2347   -0.7371 C   0  0  0  0  0  0  0  0  0  0  0  0
   15.3875   -2.2232   -1.7389 C   0  0  0  0  0  0  0  0  0  0  0  0
   15.9361   -2.6291   -2.9704 C   0  0  0  0  0  0  0  0  0  0  0  0
   15.9936   -3.6865   -3.2161 H   0  0  0  0  0  0  0  0  0  0  0  0
   16.4095   -1.6837   -3.8891 C   0  0  0  0  0  0  0  0  0  0  0  0
   16.8448   -1.9881   -4.8368 H   0  0  0  0  0  0  0  0  0  0  0  0
   16.3074   -0.3232   -3.5839 C   0  0  0  0  0  0  0  0  0  0  0  0
   16.6718    0.4397   -4.2593 H   0  0  0  0  0  0  0  0  0  0  0  0
   15.7169    0.1067   -2.4067 C   0  0  0  0  0  0  0  0  0  0  0  0
   15.6109    1.4844   -2.2378 N   0  0  0  0  0  0  0  0  0  0  0  0
   16.1329    2.0654   -2.8884 H   0  0  0  0  0  0  0  0  0  0  0  0
   15.0678    2.1345   -1.0467 C   0  0  0  0  0  0  0  0  0  0  0  0
   14.0023    2.0201   -0.8534 H   0  0  0  0  0  0  0  0  0  0  0  0
   15.9526    2.1305    0.1707 C   0  0  0  0  0  0  0  0  0  0  0  0
   15.5341    2.1676    1.1751 H   0  0  0  0  0  0  0  0  0  0  0  0
   16.8513    1.5403    0.0411 H   0  0  0  0  0  0  0  0  0  0  0  0
   15.7568    3.4148   -0.6093 C   0  0  0  0  0  0  0  0  0  0  0  0
   15.1657    4.1772   -0.0899 H   0  0  0  0  0  0  0  0  0  0  0  0
   16.6046    3.7744   -1.1982 H   0  0  0  0  0  0  0  0  0  0  0  0
   15.2659   -0.8372   -1.4772 C   0  0  0  0  0  0  0  0  0  0  0  0
   14.8270   -0.4744   -0.5523 H   0  0  0  0  0  0  0  0  0  0  0  0
   13.3336   -3.0410   -0.5802 C   0  0  0  0  0  0  0  0  0  0  0  0
   12.4744   -3.1782   -1.4522 O   0  0  0  0  0  0  0  0  0  0  0  0
   13.0568   -2.6759    0.7228 N   0  0  0  0  0  0  0  0  0  0  0  0
   11.7499   -2.3139    1.2792 C   0  0  0  0  0  0  0  0  0  0  0  0
   10.9489   -2.4827    0.5510 H   0  0  0  0  0  0  0  0  0  0  0  0
   11.7357   -1.2552    1.5598 H   0  0  0  0  0  0  0  0  0  0  0  0
   11.5190   -2.9097    2.1700 H   0  0  0  0  0  0  0  0  0  0  0  0
   14.2610   -2.6059    1.3897 C   0  0  0  0  0  0  0  0  0  0  0  0
   14.4346   -2.2492    2.6936 N   0  0  0  0  0  0  0  0  0  0  0  0
   15.3720   -2.3028    3.0935 H   0  0  0  0  0  0  0  0  0  0  0  0
   13.6200   -2.1152    3.2881 H   0  0  0  0  0  0  0  0  0  0  0  0
   15.2656   -2.9180    0.6452 N   0  0  0  0  0  4  0  0  0  0  0  0
   16.2236   -3.0113    0.9884 H   0  0  0  0  0  0  0  0  0  0  0  0
   14.3318   -5.5074   -1.7466 C   0  0  0  0  0  0  0  0  0  0  0  0
   13.3806   -5.1146   -2.0938 H   0  0  0  0  0  0  0  0  0  0  0  0
   14.6492   -6.8520   -1.9728 C   0  0  0  0  0  0  0  0  0  0  0  0
   13.9466   -7.4988   -2.4908 H   0  0  0  0  0  0  0  0  0  0  0  0
  1  2  1  0
  2  3  2  0
  3  4  1  0
  3  5  1  0
  5  6  1  0
  5  7  2  0
  7  8  1  0
  8  9  1  0
  9 10  2  0
 10 11  1  0
 10 12  1  0
 12 13  1  0
 12 14  2  0
 14 15  1  0
 14 16  1  0
 16 17  1  0
 17 18  1  0
 17 19  1  0
 19 20  1  0
 19 21  1  0
 21 22  1  0
 21 23  1  0
 21 24  1  0
 24 25  1  0
 24 26  1  0
 16 27  2  0
 27 28  1  0
  8 29  1  0
 29 30  2  0
 29 31  1  0
 31 32  1  0
 32 33  1  0
 32 34  1  0
 32 35  1  0
 31 36  1  0
 36 37  1  0
 37 38  1  0
 37 39  1  0
 36 40  2  0
 40 41  1  0
  7 42  1  0
 42 43  1  0
 42 44  2  0
 44 45  1  0
 44  2  1  0
 40  8  1  0
 27  9  1  0
 24 19  1  0
M  CHG  1  40   1
M  END
>  <score>  (303) 
5.35596

$$$$

     RDKit          3D

 47 50  0  0  0  0  0  0  0  0999 V2000
    9.3853   -6.0735   -0.6303 H   0  0  0  0  0  0  0  0  0  0  0  0
    9.8355   -6.8591   -1.2267 C   0  0  0  0  0  0  0  0  0  0  0  0
    9.0321   -7.7289   -1.8627 N   0  0  0  0  0  0  0  0  0  0  0  0
    9.6009   -8.7123   -2.5723 C   0  0  0  0  0  0  0  0  0  0  0  0
    8.9772   -9.4072   -3.1250 H   0  0  0  0  0  0  0  0  0  0  0  0
   10.9756   -8.8535   -2.6600 C   0  0  0  0  0  0  0  0  0  0  0  0
   11.3965   -9.6444   -3.2630 H   0  0  0  0  0  0  0  0  0  0  0  0
   11.7947   -7.9298   -2.0383 C   0  0  0  0  0  0  0  0  0  0  0  0
   13.1556   -8.0385   -2.2060 N   0  0  0  0  0  0  0  0  0  0  0  0
   13.4942   -8.9223   -2.5641 H   0  0  0  0  0  0  0  0  0  0  0  0
   14.1251   -7.1414   -1.7659 C   0  0  0  0  0  0  0  0  0  0  0  0
   15.3823   -7.6777   -1.5028 C   0  0  0  0  0  0  0  0  0  0  0  0
   15.5328   -8.7392   -1.6524 H   0  0  0  0  0  0  0  0  0  0  0  0
   16.4184   -6.8708   -1.0268 C   0  0  0  0  0  0  0  0  0  0  0  0
   17.3832   -7.3041   -0.7701 H   0  0  0  0  0  0  0  0  0  0  0  0
   16.1935   -5.5038   -0.8427 C   0  0  0  0  0  0  0  0  0  0  0  0
   16.9900   -4.8852   -0.4412 H   0  0  0  0  0  0  0  0  0  0  0  0
   14.9425   -4.9245   -1.1230 C   0  0  0  0  0  0  0  0  0  0  0  0
   14.6749   -3.4506   -0.8164 C   0  0  0  0  0  0  0  0  0  0  0  0
   15.2737   -2.4485   -1.7959 C   0  0  0  0  0  0  0  0  0  0  0  0
   15.8601   -2.8232   -3.0173 C   0  0  0  0  0  0  0  0  0  0  0  0
   15.9135   -3.8706   -3.2987 H   0  0  0  0  0  0  0  0  0  0  0  0
   16.3828   -1.8476   -3.8798 C   0  0  0  0  0  0  0  0  0  0  0  0
   16.8405   -2.1312   -4.8198 H   0  0  0  0  0  0  0  0  0  0  0  0
   16.3233   -0.4929   -3.5387 C   0  0  0  0  0  0  0  0  0  0  0  0
   16.7271    0.2625   -4.2071 H   0  0  0  0  0  0  0  0  0  0  0  0
   15.7433   -0.1105   -2.3287 C   0  0  0  0  0  0  0  0  0  0  0  0
   15.6969    0.9361   -2.0435 H   0  0  0  0  0  0  0  0  0  0  0  0
   15.2202   -1.0810   -1.4719 C   0  0  0  0  0  0  0  0  0  0  0  0
   14.7708   -0.7756   -0.5310 H   0  0  0  0  0  0  0  0  0  0  0  0
   13.1746   -3.1527   -0.5958 C   0  0  0  0  0  0  0  0  0  0  0  0
   12.2704   -3.2308   -1.4270 O   0  0  0  0  0  0  0  0  0  0  0  0
   12.9738   -2.7289    0.7046 N   0  0  0  0  0  0  0  0  0  0  0  0
   11.7147   -2.2917    1.3154 C   0  0  0  0  0  0  0  0  0  0  0  0
   11.7667   -1.2303    1.5837 H   0  0  0  0  0  0  0  0  0  0  0  0
   10.8694   -2.4286    0.6298 H   0  0  0  0  0  0  0  0  0  0  0  0
   11.5074   -2.8681    2.2252 H   0  0  0  0  0  0  0  0  0  0  0  0
   14.2102   -2.7078    1.3111 C   0  0  0  0  0  0  0  0  0  0  0  0
   14.4689   -2.2698    2.5734 N   0  0  0  0  0  0  0  0  0  0  0  0
   15.4058   -2.4095    2.9499 H   0  0  0  0  0  0  0  0  0  0  0  0
   13.6847   -2.0915    3.1981 H   0  0  0  0  0  0  0  0  0  0  0  0
   15.1554   -3.1379    0.5452 N   0  0  0  0  0  4  0  0  0  0  0  0
   16.1399   -3.1582    0.8167 H   0  0  0  0  0  0  0  0  0  0  0  0
   13.9171   -5.7637   -1.6047 C   0  0  0  0  0  0  0  0  0  0  0  0
   12.9537   -5.3373   -1.8566 H   0  0  0  0  0  0  0  0  0  0  0  0
   11.2195   -6.9277   -1.2932 C   0  0  0  0  0  0  0  0  0  0  0  0
   11.8479   -6.2241   -0.7624 H   0  0  0  0  0  0  0  0  0  0  0  0
  1  2  1  0
  2  3  2  0
  3  4  1  0
  4  5  1  0
  4  6  2  0
  6  7  1  0
  6  8  1  0
  8  9  1  0
  9 10  1  0
  9 11  1  0
 11 12  2  0
 12 13  1  0
 12 14  1  0
 14 15  1  0
 14 16  2  0
 16 17  1  0
 16 18  1  0
 18 19  1  0
 19 20  1  0
 20 21  2  0
 21 22  1  0
 21 23  1  0
 23 24  1  0
 23 25  2  0
 25 26  1  0
 25 27  1  0
 27 28  1  0
 27 29  2  0
 29 30  1  0
 19 31  1  0
 31 32  2  0
 31 33  1  0
 33 34  1  0
 34 35  1  0
 34 36  1  0
 34 37  1  0
 33 38  1  0
 38 39  1  0
 39 40  1  0
 39 41  1  0
 38 42  2  0
 42 43  1  0
 18 44  2  0
 44 45  1  0
  8 46  2  0
 46 47  1  0
 46  2  1  0
 44 11  1  0
 42 19  1  0
 29 20  1  0
M  CHG  1  42   1
M  END
>  <score>  (304) 
5.35416

$$$$

     RDKit          3D

 39 41  0  0  0  0  0  0  0  0999 V2000
   16.1312   -8.4935   -1.6103 H   0  0  0  0  0  0  0  0  0  0  0  0
   15.8560   -7.4522   -1.4662 C   0  0  0  0  0  0  0  0  0  0  0  0
   16.7246   -6.5924   -0.7929 C   0  0  0  0  0  0  0  0  0  0  0  0
   17.6797   -6.9539   -0.4231 H   0  0  0  0  0  0  0  0  0  0  0  0
   16.3761   -5.2509   -0.6029 C   0  0  0  0  0  0  0  0  0  0  0  0
   17.0737   -4.6070   -0.0782 H   0  0  0  0  0  0  0  0  0  0  0  0
   15.1538   -4.7275   -1.0684 C   0  0  0  0  0  0  0  0  0  0  0  0
   14.7986   -3.2512   -0.7871 C   0  0  0  0  0  0  0  0  0  0  0  0
   15.3883   -2.2470   -1.7870 C   0  0  0  0  0  0  0  0  0  0  0  0
   15.9480   -2.6451   -3.0169 C   0  0  0  0  0  0  0  0  0  0  0  0
   16.0115   -3.6970   -3.2820 H   0  0  0  0  0  0  0  0  0  0  0  0
   16.4280   -1.6901   -3.9232 C   0  0  0  0  0  0  0  0  0  0  0  0
   16.8602   -2.0074   -4.8661 H   0  0  0  0  0  0  0  0  0  0  0  0
   16.3426   -0.3252   -3.6284 C   0  0  0  0  0  0  0  0  0  0  0  0
   16.6932    0.3999   -4.3570 H   0  0  0  0  0  0  0  0  0  0  0  0
   15.7897    0.1062   -2.4136 C   0  0  0  0  0  0  0  0  0  0  0  0
   15.6569    1.5824   -2.1055 C   0  0  0  0  0  0  0  0  0  0  0  0
   16.4430    2.1530   -2.6098 H   0  0  0  0  0  0  0  0  0  0  0  0
   15.7570    1.7603   -1.0306 H   0  0  0  0  0  0  0  0  0  0  0  0
   14.4423    2.0288   -2.5241 F   0  0  0  0  0  0  0  0  0  0  0  0
   15.3232   -0.8633   -1.5063 C   0  0  0  0  0  0  0  0  0  0  0  0
   14.8904   -0.5291   -0.5672 H   0  0  0  0  0  0  0  0  0  0  0  0
   13.2830   -3.0128   -0.6188 C   0  0  0  0  0  0  0  0  0  0  0  0
   12.4153   -3.0716   -1.4871 O   0  0  0  0  0  0  0  0  0  0  0  0
   13.0175   -2.6628    0.6970 N   0  0  0  0  0  0  0  0  0  0  0  0
   11.7158   -2.3117    1.2624 C   0  0  0  0  0  0  0  0  0  0  0  0
   11.4994   -2.9242    2.1449 H   0  0  0  0  0  0  0  0  0  0  0  0
   11.6927   -1.2571    1.5591 H   0  0  0  0  0  0  0  0  0  0  0  0
   10.9182   -2.4778    0.5339 H   0  0  0  0  0  0  0  0  0  0  0  0
   14.2194   -2.6321    1.3683 C   0  0  0  0  0  0  0  0  0  0  0  0
   14.3865   -2.3463    2.6927 N   0  0  0  0  0  0  0  0  0  0  0  0
   15.3206   -2.3621    3.1019 H   0  0  0  0  0  0  0  0  0  0  0  0
   13.5772   -2.1263    3.2742 H   0  0  0  0  0  0  0  0  0  0  0  0
   15.2190   -2.9094    0.5901 N   0  0  0  0  0  4  0  0  0  0  0  0
   16.1957   -2.8815    0.8904 H   0  0  0  0  0  0  0  0  0  0  0  0
   14.2953   -5.6081   -1.7703 C   0  0  0  0  0  0  0  0  0  0  0  0
   13.3514   -5.2621   -2.1827 H   0  0  0  0  0  0  0  0  0  0  0  0
   14.6427   -6.9594   -1.9584 C   0  0  0  0  0  0  0  0  0  0  0  0
   13.9731   -7.6305   -2.4899 H   0  0  0  0  0  0  0  0  0  0  0  0
  1  2  1  0
  2  3  2  0
  3  4  1  0
  3  5  1  0
  5  6  1  0
  5  7  2  0
  7  8  1  0
  8  9  1  0
  9 10  2  0
 10 11  1  0
 10 12  1  0
 12 13  1  0
 12 14  2  0
 14 15  1  0
 14 16  1  0
 16 17  1  0
 17 18  1  0
 17 19  1  0
 17 20  1  0
 16 21  2  0
 21 22  1  0
  8 23  1  0
 23 24  2  0
 23 25  1  0
 25 26  1  0
 26 27  1  0
 26 28  1  0
 26 29  1  0
 25 30  1  0
 30 31  1  0
 31 32  1  0
 31 33  1  0
 30 34  2  0
 34 35  1  0
  7 36  1  0
 36 37  1  0
 36 38  2  0
 38 39  1  0
 38  2  1  0
 34  8  1  0
 21  9  1  0
M  CHG  1  34   1
M  END
>  <score>  (305) 
5.35347

$$$$

     RDKit          3D

 49 52  0  0  0  0  0  0  0  0999 V2000
    8.3551  -11.0537   -3.7370 H   0  0  0  0  0  0  0  0  0  0  0  0
    9.0895  -10.3845   -3.3015 C   0  0  0  0  0  0  0  0  0  0  0  0
    8.7280   -9.1452   -2.9146 N   0  0  0  0  0  0  0  0  0  0  0  0
    9.6897   -8.3296   -2.4261 C   0  0  0  0  0  0  0  0  0  0  0  0
    9.4277   -7.3011   -2.1846 H   0  0  0  0  0  0  0  0  0  0  0  0
   11.0518   -8.7106   -2.3046 C   0  0  0  0  0  0  0  0  0  0  0  0
   12.0700   -7.8387   -1.8530 N   0  0  0  0  0  0  0  0  0  0  0  0
   11.8159   -6.9856   -1.3644 H   0  0  0  0  0  0  0  0  0  0  0  0
   13.4299   -8.0221   -2.0869 C   0  0  0  0  0  0  0  0  0  0  0  0
   13.8171   -9.0332   -2.6612 O   0  0  0  0  0  0  0  0  0  0  0  0
   14.4229   -7.0358   -1.6354 C   0  0  0  0  0  0  0  0  0  0  0  0
   15.7229   -7.4829   -1.3566 C   0  0  0  0  0  0  0  0  0  0  0  0
   15.9671   -8.5377   -1.4771 H   0  0  0  0  0  0  0  0  0  0  0  0
   16.6939   -6.5961   -0.9015 C   0  0  0  0  0  0  0  0  0  0  0  0
   17.6846   -6.9794   -0.6828 H   0  0  0  0  0  0  0  0  0  0  0  0
   16.3889   -5.2449   -0.7194 C   0  0  0  0  0  0  0  0  0  0  0  0
   17.1617   -4.5731   -0.3500 H   0  0  0  0  0  0  0  0  0  0  0  0
   15.0986   -4.7605   -0.9813 C   0  0  0  0  0  0  0  0  0  0  0  0
   14.7876   -3.2883   -0.7094 C   0  0  0  0  0  0  0  0  0  0  0  0
   15.3650   -2.3038   -1.7260 C   0  0  0  0  0  0  0  0  0  0  0  0
   15.9145   -2.7152   -2.9539 C   0  0  0  0  0  0  0  0  0  0  0  0
   15.9594   -3.7734   -3.1932 H   0  0  0  0  0  0  0  0  0  0  0  0
   16.4050   -1.7723   -3.8709 C   0  0  0  0  0  0  0  0  0  0  0  0
   16.8339   -2.0950   -4.8142 H   0  0  0  0  0  0  0  0  0  0  0  0
   16.3467   -0.4061   -3.5769 C   0  0  0  0  0  0  0  0  0  0  0  0
   16.7265    0.3215   -4.2891 H   0  0  0  0  0  0  0  0  0  0  0  0
   15.7983    0.0193   -2.3645 C   0  0  0  0  0  0  0  0  0  0  0  0
   15.7533    1.0796   -2.1290 H   0  0  0  0  0  0  0  0  0  0  0  0
   15.3097   -0.9228   -1.4527 C   0  0  0  0  0  0  0  0  0  0  0  0
   14.8844   -0.5756   -0.5148 H   0  0  0  0  0  0  0  0  0  0  0  0
   13.2829   -3.0213   -0.5103 C   0  0  0  0  0  0  0  0  0  0  0  0
   12.3828   -3.1876   -1.3311 O   0  0  0  0  0  0  0  0  0  0  0  0
   13.0532   -2.5911    0.7797 N   0  0  0  0  0  0  0  0  0  0  0  0
   11.7528   -2.2571    1.3646 C   0  0  0  0  0  0  0  0  0  0  0  0
   11.7150   -1.1995    1.6501 H   0  0  0  0  0  0  0  0  0  0  0  0
   10.9458   -2.4437    0.6448 H   0  0  0  0  0  0  0  0  0  0  0  0
   11.5593   -2.8672    2.2549 H   0  0  0  0  0  0  0  0  0  0  0  0
   14.2750   -2.5590    1.4180 C   0  0  0  0  0  0  0  0  0  0  0  0
   14.4881   -2.1807    2.7098 N   0  0  0  0  0  0  0  0  0  0  0  0
   15.4209   -2.3005    3.1038 H   0  0  0  0  0  0  0  0  0  0  0  0
   13.6890   -2.0730    3.3309 H   0  0  0  0  0  0  0  0  0  0  0  0
   15.2447   -2.9411    0.6534 N   0  0  0  0  0  4  0  0  0  0  0  0
   16.2192   -2.9975    0.9586 H   0  0  0  0  0  0  0  0  0  0  0  0
   14.1193   -5.6681   -1.4414 C   0  0  0  0  0  0  0  0  0  0  0  0
   13.1191   -5.2876   -1.6322 H   0  0  0  0  0  0  0  0  0  0  0  0
   11.3921  -10.0087   -2.6950 C   0  0  0  0  0  0  0  0  0  0  0  0
   12.4177  -10.3597   -2.6349 H   0  0  0  0  0  0  0  0  0  0  0  0
   10.3991  -10.8525   -3.1790 C   0  0  0  0  0  0  0  0  0  0  0  0
   10.6438  -11.8602   -3.4940 H   0  0  0  0  0  0  0  0  0  0  0  0
  1  2  1  0
  2  3  2  0
  3  4  1  0
  4  5  1  0
  4  6  2  0
  6  7  1  0
  7  8  1  0
  7  9  1  0
  9 10  2  0
  9 11  1  0
 11 12  2  0
 12 13  1  0
 12 14  1  0
 14 15  1  0
 14 16  2  0
 16 17  1  0
 16 18  1  0
 18 19  1  0
 19 20  1  0
 20 21  2  0
 21 22  1  0
 21 23  1  0
 23 24  1  0
 23 25  2  0
 25 26  1  0
 25 27  1  0
 27 28  1  0
 27 29  2  0
 29 30  1  0
 19 31  1  0
 31 32  2  0
 31 33  1  0
 33 34  1  0
 34 35  1  0
 34 36  1  0
 34 37  1  0
 33 38  1  0
 38 39  1  0
 39 40  1  0
 39 41  1  0
 38 42  2  0
 42 43  1  0
 18 44  2  0
 44 45  1  0
  6 46  1  0
 46 47  1  0
 46 48  2  0
 48 49  1  0
 48  2  1  0
 44 11  1  0
 42 19  1  0
 29 20  1  0
M  CHG  1  42   1
M  END
>  <score>  (306) 
5.35042

$$$$

     RDKit          3D

 48 51  0  0  0  0  0  0  0  0999 V2000
    7.8386   -7.1436   -1.7204 H   0  0  0  0  0  0  0  0  0  0  0  0
    8.9070   -7.3295   -1.7889 C   0  0  0  0  0  0  0  0  0  0  0  0
    9.3918   -8.3915   -2.5646 C   0  0  0  0  0  0  0  0  0  0  0  0
    8.7281   -9.0298   -3.1370 H   0  0  0  0  0  0  0  0  0  0  0  0
   10.7631   -8.6323   -2.6326 C   0  0  0  0  0  0  0  0  0  0  0  0
   11.1427   -9.4488   -3.2385 H   0  0  0  0  0  0  0  0  0  0  0  0
   11.6547   -7.7996   -1.9521 C   0  0  0  0  0  0  0  0  0  0  0  0
   13.0151   -8.0204   -2.1105 N   0  0  0  0  0  0  0  0  0  0  0  0
   13.2911   -8.9044   -2.5175 H   0  0  0  0  0  0  0  0  0  0  0  0
   14.0366   -7.1456   -1.7438 C   0  0  0  0  0  0  0  0  0  0  0  0
   15.2911   -7.7027   -1.5222 C   0  0  0  0  0  0  0  0  0  0  0  0
   15.4158   -8.7697   -1.6648 H   0  0  0  0  0  0  0  0  0  0  0  0
   16.3478   -6.9046   -1.0771 C   0  0  0  0  0  0  0  0  0  0  0  0
   17.3052   -7.3640   -0.8370 H   0  0  0  0  0  0  0  0  0  0  0  0
   16.1447   -5.5301   -0.8933 C   0  0  0  0  0  0  0  0  0  0  0  0
   16.9676   -4.9367   -0.5097 H   0  0  0  0  0  0  0  0  0  0  0  0
   14.8983   -4.9289   -1.1423 C   0  0  0  0  0  0  0  0  0  0  0  0
   14.6497   -3.4531   -0.8277 C   0  0  0  0  0  0  0  0  0  0  0  0
   15.2596   -2.4535   -1.8034 C   0  0  0  0  0  0  0  0  0  0  0  0
   15.8489   -2.8302   -3.0234 C   0  0  0  0  0  0  0  0  0  0  0  0
   15.8988   -3.8786   -3.3051 H   0  0  0  0  0  0  0  0  0  0  0  0
   16.3795   -1.8541   -3.8798 C   0  0  0  0  0  0  0  0  0  0  0  0
   16.8422   -2.1379   -4.8168 H   0  0  0  0  0  0  0  0  0  0  0  0
   16.3244   -0.5009   -3.5341 C   0  0  0  0  0  0  0  0  0  0  0  0
   16.7339    0.2539   -4.1986 H   0  0  0  0  0  0  0  0  0  0  0  0
   15.7399   -0.1188   -2.3267 C   0  0  0  0  0  0  0  0  0  0  0  0
   15.6993    0.9260   -2.0381 H   0  0  0  0  0  0  0  0  0  0  0  0
   15.2090   -1.0877   -1.4754 C   0  0  0  0  0  0  0  0  0  0  0  0
   14.7564   -0.7850   -0.5351 H   0  0  0  0  0  0  0  0  0  0  0  0
   13.1526   -3.1437   -0.5983 C   0  0  0  0  0  0  0  0  0  0  0  0
   12.2476   -3.1866   -1.4298 O   0  0  0  0  0  0  0  0  0  0  0  0
   12.9632   -2.7174    0.7028 N   0  0  0  0  0  0  0  0  0  0  0  0
   11.7091   -2.2823    1.3267 C   0  0  0  0  0  0  0  0  0  0  0  0
   11.7613   -1.2235    1.6003 H   0  0  0  0  0  0  0  0  0  0  0  0
   11.5094   -2.8596    2.2364 H   0  0  0  0  0  0  0  0  0  0  0  0
   10.8557   -2.4158    0.6520 H   0  0  0  0  0  0  0  0  0  0  0  0
   14.2020   -2.7155    1.3028 C   0  0  0  0  0  0  0  0  0  0  0  0
   14.4721   -2.2819    2.5634 N   0  0  0  0  0  0  0  0  0  0  0  0
   15.4108   -2.4237    2.9329 H   0  0  0  0  0  0  0  0  0  0  0  0
   13.6947   -2.0871    3.1909 H   0  0  0  0  0  0  0  0  0  0  0  0
   15.1392   -3.1583    0.5343 N   0  0  0  0  0  4  0  0  0  0  0  0
   16.1252   -3.1864    0.7995 H   0  0  0  0  0  0  0  0  0  0  0  0
   13.8561   -5.7620   -1.5882 C   0  0  0  0  0  0  0  0  0  0  0  0
   12.8942   -5.3175   -1.7990 H   0  0  0  0  0  0  0  0  0  0  0  0
   11.1730   -6.7479   -1.1721 C   0  0  0  0  0  0  0  0  0  0  0  0
   11.8813   -6.1226   -0.6388 H   0  0  0  0  0  0  0  0  0  0  0  0
    9.7980   -6.5056   -1.0862 C   0  0  0  0  0  0  0  0  0  0  0  0
    9.4368   -5.6802   -0.4776 H   0  0  0  0  0  0  0  0  0  0  0  0
  1  2  1  0
  2  3  2  0
  3  4  1  0
  3  5  1  0
  5  6  1  0
  5  7  2  0
  7  8  1  0
  8  9  1  0
  8 10  1  0
 10 11  2  0
 11 12  1  0
 11 13  1  0
 13 14  1  0
 13 15  2  0
 15 16  1  0
 15 17  1  0
 17 18  1  0
 18 19  1  0
 19 20  2  0
 20 21  1  0
 20 22  1  0
 22 23  1  0
 22 24  2  0
 24 25  1  0
 24 26  1  0
 26 27  1  0
 26 28  2  0
 28 29  1  0
 18 30  1  0
 30 31  2  0
 30 32  1  0
 32 33  1  0
 33 34  1  0
 33 35  1  0
 33 36  1  0
 32 37  1  0
 37 38  1  0
 38 39  1  0
 38 40  1  0
 37 41  2  0
 41 42  1  0
 17 43  2  0
 43 44  1  0
  7 45  1  0
 45 46  1  0
 45 47  2  0
 47 48  1  0
 47  2  1  0
 43 10  1  0
 41 18  1  0
 28 19  1  0
M  CHG  1  41   1
M  END
>  <score>  (307) 
5.34999

$$$$

     RDKit          3D

 49 51  0  0  0  0  0  0  0  0999 V2000
   13.5642   -9.2742   -4.7456 H   0  0  0  0  0  0  0  0  0  0  0  0
   13.4068   -9.2293   -3.7888 O   0  0  0  0  0  0  0  0  0  0  0  0
   14.0941   -8.1122   -3.2040 C   0  0  0  0  0  0  0  0  0  0  0  0
   15.1711   -8.2030   -3.3619 H   0  0  0  0  0  0  0  0  0  0  0  0
   13.7778   -7.1793   -3.6833 H   0  0  0  0  0  0  0  0  0  0  0  0
   13.8374   -8.0400   -1.6943 C   0  0  0  0  0  0  0  0  0  0  0  0
   14.8139   -7.0172   -1.1419 C   0  0  0  0  0  0  0  0  0  0  0  0
   16.1417   -7.3783   -0.8699 C   0  0  0  0  0  0  0  0  0  0  0  0
   16.4449   -8.4120   -0.9775 H   0  0  0  0  0  0  0  0  0  0  0  0
   17.0766   -6.4276   -0.4595 C   0  0  0  0  0  0  0  0  0  0  0  0
   18.1022   -6.7187   -0.2598 H   0  0  0  0  0  0  0  0  0  0  0  0
   16.6894   -5.0972   -0.3107 C   0  0  0  0  0  0  0  0  0  0  0  0
   17.4232   -4.3469   -0.0268 H   0  0  0  0  0  0  0  0  0  0  0  0
   15.3585   -4.7166   -0.5393 C   0  0  0  0  0  0  0  0  0  0  0  0
   14.9385   -3.2681   -0.3613 C   0  0  0  0  0  0  0  0  0  0  0  0
   15.4748   -2.3698   -1.4594 C   0  0  0  0  0  0  0  0  0  0  0  0
   15.9217   -2.8955   -2.6836 C   0  0  0  0  0  0  0  0  0  0  0  0
   15.9440   -3.9728   -2.8243 H   0  0  0  0  0  0  0  0  0  0  0  0
   16.3221   -2.0450   -3.7184 C   0  0  0  0  0  0  0  0  0  0  0  0
   16.6483   -2.4606   -4.6654 H   0  0  0  0  0  0  0  0  0  0  0  0
   16.2819   -0.6599   -3.5356 C   0  0  0  0  0  0  0  0  0  0  0  0
   16.5806   -0.0000   -4.3431 H   0  0  0  0  0  0  0  0  0  0  0  0
   15.8486   -0.1263   -2.3180 C   0  0  0  0  0  0  0  0  0  0  0  0
   15.8091    0.9484   -2.1729 H   0  0  0  0  0  0  0  0  0  0  0  0
   15.4471   -0.9777   -1.2865 C   0  0  0  0  0  0  0  0  0  0  0  0
   15.0996   -0.5610   -0.3441 H   0  0  0  0  0  0  0  0  0  0  0  0
   13.4178   -3.0452   -0.2089 C   0  0  0  0  0  0  0  0  0  0  0  0
   12.5425   -3.2621   -1.0452 O   0  0  0  0  0  0  0  0  0  0  0  0
   13.1499   -2.5541    1.0534 N   0  0  0  0  0  0  0  0  0  0  0  0
   11.8497   -2.2387    1.6385 C   0  0  0  0  0  0  0  0  0  0  0  0
   11.0382   -2.7109    1.0789 H   0  0  0  0  0  0  0  0  0  0  0  0
   11.6850   -1.1568    1.6406 H   0  0  0  0  0  0  0  0  0  0  0  0
   11.7972   -2.5998    2.6702 H   0  0  0  0  0  0  0  0  0  0  0  0
   14.3440   -2.5263    1.7263 C   0  0  0  0  0  0  0  0  0  0  0  0
   14.5007   -2.2770    3.0500 N   0  0  0  0  0  0  0  0  0  0  0  0
   13.7341   -1.8363    3.5476 H   0  0  0  0  0  0  0  0  0  0  0  0
   15.4457   -2.1536    3.4029 H   0  0  0  0  0  0  0  0  0  0  0  0
   15.3509   -2.8200    0.9807 N   0  0  0  0  0  4  0  0  0  0  0  0
   16.2692   -3.0045    1.3750 H   0  0  0  0  0  0  0  0  0  0  0  0
   14.4328   -5.6832   -0.9589 C   0  0  0  0  0  0  0  0  0  0  0  0
   13.4037   -5.3961   -1.1501 H   0  0  0  0  0  0  0  0  0  0  0  0
   12.3747   -7.6595   -1.4228 C   0  0  0  0  0  0  0  0  0  0  0  0
   11.7210   -8.4934   -1.7060 H   0  0  0  0  0  0  0  0  0  0  0  0
   12.2384   -7.4384   -0.3586 H   0  0  0  0  0  0  0  0  0  0  0  0
   12.0774   -6.7754   -1.9951 H   0  0  0  0  0  0  0  0  0  0  0  0
   14.0669   -9.4117   -1.0380 C   0  0  0  0  0  0  0  0  0  0  0  0
   15.0859   -9.7541   -1.2085 H   0  0  0  0  0  0  0  0  0  0  0  0
   13.3946  -10.1574   -1.4678 H   0  0  0  0  0  0  0  0  0  0  0  0
   13.8941   -9.3669    0.0402 H   0  0  0  0  0  0  0  0  0  0  0  0
  1  2  1  0
  2  3  1  0
  3  4  1  0
  3  5  1  0
  3  6  1  0
  6  7  1  0
  7  8  2  0
  8  9  1  0
  8 10  1  0
 10 11  1  0
 10 12  2  0
 12 13  1  0
 12 14  1  0
 14 15  1  0
 15 16  1  0
 16 17  2  0
 17 18  1  0
 17 19  1  0
 19 20  1  0
 19 21  2  0
 21 22  1  0
 21 23  1  0
 23 24  1  0
 23 25  2  0
 25 26  1  0
 15 27  1  0
 27 28  2  0
 27 29  1  0
 29 30  1  0
 30 31  1  0
 30 32  1  0
 30 33  1  0
 29 34  1  0
 34 35  1  0
 35 36  1  0
 35 37  1  0
 34 38  2  0
 38 39  1  0
 14 40  2  0
 40 41  1  0
  6 42  1  0
 42 43  1  0
 42 44  1  0
 42 45  1  0
  6 46  1  0
 46 47  1  0
 46 48  1  0
 46 49  1  0
 40  7  1  0
 38 15  1  0
 25 16  1  0
M  CHG  1  38   1
M  END
>  <score>  (308) 
5.34766

$$$$

     RDKit          3D

 48 50  0  0  0  0  0  0  0  0999 V2000
   16.1208   -8.4856   -1.6115 H   0  0  0  0  0  0  0  0  0  0  0  0
   15.8534   -7.4403   -1.4731 C   0  0  0  0  0  0  0  0  0  0  0  0
   16.7292   -6.5830   -0.8028 C   0  0  0  0  0  0  0  0  0  0  0  0
   17.6721   -6.9565   -0.4168 H   0  0  0  0  0  0  0  0  0  0  0  0
   16.3926   -5.2377   -0.6117 C   0  0  0  0  0  0  0  0  0  0  0  0
   17.0658   -4.5861   -0.0637 H   0  0  0  0  0  0  0  0  0  0  0  0
   15.1750   -4.7129   -1.0763 C   0  0  0  0  0  0  0  0  0  0  0  0
   14.8197   -3.2463   -0.7849 C   0  0  0  0  0  0  0  0  0  0  0  0
   15.3844   -2.2335   -1.7796 C   0  0  0  0  0  0  0  0  0  0  0  0
   15.9375   -2.6260   -3.0077 C   0  0  0  0  0  0  0  0  0  0  0  0
   15.9997   -3.6789   -3.2548 H   0  0  0  0  0  0  0  0  0  0  0  0
   16.4198   -1.6769   -3.9175 C   0  0  0  0  0  0  0  0  0  0  0  0
   16.8530   -1.9975   -4.8571 H   0  0  0  0  0  0  0  0  0  0  0  0
   16.3447   -0.3141   -3.6152 C   0  0  0  0  0  0  0  0  0  0  0  0
   16.6998    0.4341   -4.3154 H   0  0  0  0  0  0  0  0  0  0  0  0
   15.7901    0.1007   -2.4073 C   0  0  0  0  0  0  0  0  0  0  0  0
   15.7358    1.4668   -2.1466 N   0  0  0  0  0  0  0  0  0  0  0  0
   16.1814    2.0694   -2.8328 H   0  0  0  0  0  0  0  0  0  0  0  0
   15.0783    2.0924   -0.9732 C   0  0  0  0  0  0  0  0  0  0  0  0
   15.3722    3.1417   -0.8818 H   0  0  0  0  0  0  0  0  0  0  0  0
   15.3997    1.5903   -0.0593 H   0  0  0  0  0  0  0  0  0  0  0  0
   13.5622    2.0384   -1.1000 C   0  0  0  0  0  0  0  0  0  0  0  0
   13.2693    0.9965   -1.2448 H   0  0  0  0  0  0  0  0  0  0  0  0
   13.2607    2.5847   -1.9941 H   0  0  0  0  0  0  0  0  0  0  0  0
   12.9120    2.6198    0.0463 O   0  0  0  0  0  0  0  0  0  0  0  0
   11.4932    2.4544   -0.0162 C   0  0  0  0  0  0  0  0  0  0  0  0
   11.2303    1.3909   -0.0520 H   0  0  0  0  0  0  0  0  0  0  0  0
   11.1057    2.9382   -0.9121 H   0  0  0  0  0  0  0  0  0  0  0  0
   10.9975    2.9133    0.8458 H   0  0  0  0  0  0  0  0  0  0  0  0
   15.3138   -0.8521   -1.5075 C   0  0  0  0  0  0  0  0  0  0  0  0
   14.9028   -0.4903   -0.5750 H   0  0  0  0  0  0  0  0  0  0  0  0
   13.3098   -3.0183   -0.6064 C   0  0  0  0  0  0  0  0  0  0  0  0
   12.4396   -3.0871   -1.4703 O   0  0  0  0  0  0  0  0  0  0  0  0
   13.0278   -2.6742    0.7017 N   0  0  0  0  0  0  0  0  0  0  0  0
   11.7209   -2.3130    1.2607 C   0  0  0  0  0  0  0  0  0  0  0  0
   10.9117   -2.4878    0.5464 H   0  0  0  0  0  0  0  0  0  0  0  0
   11.5108   -2.9051    2.1538 H   0  0  0  0  0  0  0  0  0  0  0  0
   11.6908   -1.2584    1.5451 H   0  0  0  0  0  0  0  0  0  0  0  0
   14.2257   -2.6305    1.3667 C   0  0  0  0  0  0  0  0  0  0  0  0
   14.3960   -2.3304    2.6860 N   0  0  0  0  0  0  0  0  0  0  0  0
   15.3316   -2.3522    3.0924 H   0  0  0  0  0  0  0  0  0  0  0  0
   13.5822   -2.1235    3.2620 H   0  0  0  0  0  0  0  0  0  0  0  0
   15.2217   -2.9099    0.5962 N   0  0  0  0  0  4  0  0  0  0  0  0
   16.1898   -2.9128    0.9108 H   0  0  0  0  0  0  0  0  0  0  0  0
   14.3037   -5.5866   -1.7670 C   0  0  0  0  0  0  0  0  0  0  0  0
   13.3536   -5.2309   -2.1556 H   0  0  0  0  0  0  0  0  0  0  0  0
   14.6427   -6.9385   -1.9619 C   0  0  0  0  0  0  0  0  0  0  0  0
   13.9726   -7.6124   -2.4882 H   0  0  0  0  0  0  0  0  0  0  0  0
  1  2  1  0
  2  3  2  0
  3  4  1  0
  3  5  1  0
  5  6  1  0
  5  7  2  0
  7  8  1  0
  8  9  1  0
  9 10  2  0
 10 11  1  0
 10 12  1  0
 12 13  1  0
 12 14  2  0
 14 15  1  0
 14 16  1  0
 16 17  1  0
 17 18  1  0
 17 19  1  0
 19 20  1  0
 19 21  1  0
 19 22  1  0
 22 23  1  0
 22 24  1  0
 22 25  1  0
 25 26  1  0
 26 27  1  0
 26 28  1  0
 26 29  1  0
 16 30  2  0
 30 31  1  0
  8 32  1  0
 32 33  2  0
 32 34  1  0
 34 35  1  0
 35 36  1  0
 35 37  1  0
 35 38  1  0
 34 39  1  0
 39 40  1  0
 40 41  1  0
 40 42  1  0
 39 43  2  0
 43 44  1  0
  7 45  1  0
 45 46  1  0
 45 47  2  0
 47 48  1  0
 47  2  1  0
 43  8  1  0
 30  9  1  0
M  CHG  1  43   1
M  END
>  <score>  (309) 
5.34745

$$$$

     RDKit          3D

 58 62  0  0  0  0  0  0  0  0999 V2000
   16.1015   -8.4263   -1.6633 H   0  0  0  0  0  0  0  0  0  0  0  0
   15.8615   -7.3816   -1.4930 C   0  0  0  0  0  0  0  0  0  0  0  0
   16.7605   -6.5598   -0.8032 C   0  0  0  0  0  0  0  0  0  0  0  0
   17.7028   -6.9567   -0.4366 H   0  0  0  0  0  0  0  0  0  0  0  0
   16.4445   -5.2177   -0.5760 C   0  0  0  0  0  0  0  0  0  0  0  0
   17.1457   -4.5824   -0.0417 H   0  0  0  0  0  0  0  0  0  0  0  0
   15.2221   -4.6877   -1.0156 C   0  0  0  0  0  0  0  0  0  0  0  0
   14.8517   -3.2463   -0.7211 C   0  0  0  0  0  0  0  0  0  0  0  0
   15.4033   -2.2671   -1.7484 C   0  0  0  0  0  0  0  0  0  0  0  0
   15.9370   -2.6931   -2.9778 C   0  0  0  0  0  0  0  0  0  0  0  0
   15.9823   -3.7534   -3.2145 H   0  0  0  0  0  0  0  0  0  0  0  0
   16.4134   -1.7588   -3.9034 C   0  0  0  0  0  0  0  0  0  0  0  0
   16.8212   -2.0947   -4.8506 H   0  0  0  0  0  0  0  0  0  0  0  0
   16.3673   -0.3908   -3.6139 C   0  0  0  0  0  0  0  0  0  0  0  0
   16.7458    0.3204   -4.3425 H   0  0  0  0  0  0  0  0  0  0  0  0
   15.8290    0.0587   -2.3981 C   0  0  0  0  0  0  0  0  0  0  0  0
   15.7580    1.5292   -2.0648 C   0  0  0  0  0  0  0  0  0  0  0  0
   16.5390    2.0761   -2.6059 H   0  0  0  0  0  0  0  0  0  0  0  0
   15.9317    1.6694   -0.9907 H   0  0  0  0  0  0  0  0  0  0  0  0
   14.4215    2.0149   -2.4488 N   0  0  0  0  0  0  0  0  0  0  0  0
   14.2161    1.7863   -3.4200 H   0  0  0  0  0  0  0  0  0  0  0  0
   14.0094    3.3844   -2.1139 C   0  0  2  0  0  0  0  0  0  0  0  0
   14.6428    4.1921   -2.4995 H   0  0  0  0  0  0  0  0  0  0  0  0
   13.3918    3.5854   -0.7366 C   0  0  0  0  0  0  0  0  0  0  0  0
   13.5656    4.5349   -0.2230 H   0  0  0  0  0  0  0  0  0  0  0  0
   13.3203    2.7083   -0.0856 H   0  0  0  0  0  0  0  0  0  0  0  0
   12.5074    3.6356   -1.9830 C   0  0  1  0  0  0  0  0  0  0  0  0
   11.8429    2.7929   -2.1914 H   0  0  0  0  0  0  0  0  0  0  0  0
   11.9589    4.9825   -2.3756 C   0  0  0  0  0  0  0  0  0  0  0  0
   10.9155    5.5894   -1.6717 C   0  0  0  0  0  0  0  0  0  0  0  0
   10.4176    5.0463   -0.8784 H   0  0  0  0  0  0  0  0  0  0  0  0
   10.5455    6.9101   -1.9539 C   0  0  0  0  0  0  0  0  0  0  0  0
    9.7592    7.3959   -1.3890 H   0  0  0  0  0  0  0  0  0  0  0  0
   11.1955    7.6150   -2.9694 C   0  0  0  0  0  0  0  0  0  0  0  0
   10.9227    8.6494   -3.1475 H   0  0  0  0  0  0  0  0  0  0  0  0
   12.1956    6.9922   -3.7222 C   0  0  0  0  0  0  0  0  0  0  0  0
   12.7240    7.5332   -4.5051 H   0  0  0  0  0  0  0  0  0  0  0  0
   12.5557    5.6709   -3.4318 C   0  0  0  0  0  0  0  0  0  0  0  0
   13.3339    5.1639   -3.9870 H   0  0  0  0  0  0  0  0  0  0  0  0
   15.3402   -0.8890   -1.4857 C   0  0  0  0  0  0  0  0  0  0  0  0
   14.8983   -0.5532   -0.5515 H   0  0  0  0  0  0  0  0  0  0  0  0
   13.3307   -3.0577   -0.5471 C   0  0  0  0  0  0  0  0  0  0  0  0
   12.4582   -3.2232   -1.3971 O   0  0  0  0  0  0  0  0  0  0  0  0
   13.0663   -2.6578    0.7481 N   0  0  0  0  0  0  0  0  0  0  0  0
   11.7597   -2.3020    1.3004 C   0  0  0  0  0  0  0  0  0  0  0  0
   11.5409   -2.9038    2.1905 H   0  0  0  0  0  0  0  0  0  0  0  0
   11.7397   -1.2414    1.5762 H   0  0  0  0  0  0  0  0  0  0  0  0
   10.9633   -2.4774    0.5673 H   0  0  0  0  0  0  0  0  0  0  0  0
   14.2743   -2.5777    1.4046 C   0  0  0  0  0  0  0  0  0  0  0  0
   14.4560   -2.2228    2.7063 N   0  0  0  0  0  0  0  0  0  0  0  0
   15.3910   -2.2850    3.1053 H   0  0  0  0  0  0  0  0  0  0  0  0
   13.6435   -2.1096    3.3120 H   0  0  0  0  0  0  0  0  0  0  0  0
   15.2768   -2.8916    0.6486 N   0  0  0  0  0  4  0  0  0  0  0  0
   16.2342   -2.9910    0.9882 H   0  0  0  0  0  0  0  0  0  0  0  0
   14.3399   -5.5142   -1.7293 C   0  0  0  0  0  0  0  0  0  0  0  0
   13.4003   -5.1114   -2.0950 H   0  0  0  0  0  0  0  0  0  0  0  0
   14.6539   -6.8555   -1.9656 C   0  0  0  0  0  0  0  0  0  0  0  0
   13.9535   -7.4822   -2.5104 H   0  0  0  0  0  0  0  0  0  0  0  0
  1  2  1  0
  2  3  2  0
  3  4  1  0
  3  5  1  0
  5  6  1  0
  5  7  2  0
  7  8  1  0
  8  9  1  0
  9 10  2  0
 10 11  1  0
 10 12  1  0
 12 13  1  0
 12 14  2  0
 14 15  1  0
 14 16  1  0
 16 17  1  0
 17 18  1  0
 17 19  1  0
 17 20  1  0
 20 21  1  0
 20 22  1  0
 22 23  1  1
 22 24  1  0
 24 25  1  0
 24 26  1  0
 24 27  1  0
 27 28  1  1
 27 29  1  0
 29 30  2  0
 30 31  1  0
 30 32  1  0
 32 33  1  0
 32 34  2  0
 34 35  1  0
 34 36  1  0
 36 37  1  0
 36 38  2  0
 38 39  1  0
 16 40  2  0
 40 41  1  0
  8 42  1  0
 42 43  2  0
 42 44  1  0
 44 45  1  0
 45 46  1  0
 45 47  1  0
 45 48  1  0
 44 49  1  0
 49 50  1  0
 50 51  1  0
 50 52  1  0
 49 53  2  0
 53 54  1  0
  7 55  1  0
 55 56  1  0
 55 57  2  0
 57 58  1  0
 57  2  1  0
 53  8  1  0
 40  9  1  0
 27 22  1  0
 38 29  1  0
M  CHG  1  53   1
M  END
>  <score>  (310) 
5.34667

$$$$

     RDKit          3D

 49 51  0  0  0  0  0  0  0  0999 V2000
   16.1484   -8.2679   -1.8199 H   0  0  0  0  0  0  0  0  0  0  0  0
   15.9080   -7.2334   -1.5945 C   0  0  0  0  0  0  0  0  0  0  0  0
   16.8360   -6.4133   -0.9452 C   0  0  0  0  0  0  0  0  0  0  0  0
   17.8105   -6.8086   -0.6698 H   0  0  0  0  0  0  0  0  0  0  0  0
   16.5111   -5.0808   -0.6515 C   0  0  0  0  0  0  0  0  0  0  0  0
   17.2321   -4.4557   -0.1347 H   0  0  0  0  0  0  0  0  0  0  0  0
   15.2624   -4.5418   -1.0164 C   0  0  0  0  0  0  0  0  0  0  0  0
   14.8819   -3.0897   -0.6940 C   0  0  0  0  0  0  0  0  0  0  0  0
   15.3314   -2.0850   -1.7666 C   0  0  0  0  0  0  0  0  0  0  0  0
   16.1372   -2.4988   -2.8433 C   0  0  0  0  0  0  0  0  0  0  0  0
   16.4710   -3.5305   -2.9046 H   0  0  0  0  0  0  0  0  0  0  0  0
   16.4897   -1.6101   -3.8668 C   0  0  0  0  0  0  0  0  0  0  0  0
   17.1061   -1.9349   -4.6982 H   0  0  0  0  0  0  0  0  0  0  0  0
   16.0199   -0.2994   -3.8535 C   0  0  0  0  0  0  0  0  0  0  0  0
   16.2780    0.3906   -4.6509 H   0  0  0  0  0  0  0  0  0  0  0  0
   15.1923    0.1392   -2.8263 C   0  0  0  0  0  0  0  0  0  0  0  0
   14.6703    1.5536   -2.8857 C   0  0  0  0  0  0  0  0  0  0  0  0
   15.2036    2.1449   -3.6365 H   0  0  0  0  0  0  0  0  0  0  0  0
   13.6136    1.5540   -3.1593 H   0  0  0  0  0  0  0  0  0  0  0  0
   14.8304    2.1757   -1.5100 C   0  0  0  0  0  0  0  0  0  0  0  0
   13.8212    2.2776   -0.8248 O   0  0  0  0  0  0  0  0  0  0  0  0
   16.0874    2.4233   -0.9621 N   0  0  0  0  0  0  0  0  0  0  0  0
   16.2345    2.3786    0.4900 C   0  0  0  0  0  0  0  0  0  0  0  0
   15.3254    2.7372    0.9777 H   0  0  0  0  0  0  0  0  0  0  0  0
   16.4331    1.3526    0.8184 H   0  0  0  0  0  0  0  0  0  0  0  0
   17.0496    3.0184    0.8295 H   0  0  0  0  0  0  0  0  0  0  0  0
   17.2998    2.4563   -1.7823 C   0  0  0  0  0  0  0  0  0  0  0  0
   17.5202    1.4649   -2.1875 H   0  0  0  0  0  0  0  0  0  0  0  0
   18.1576    2.7966   -1.1871 H   0  0  0  0  0  0  0  0  0  0  0  0
   17.1754    3.1469   -2.6212 H   0  0  0  0  0  0  0  0  0  0  0  0
   14.8688   -0.7449   -1.7720 C   0  0  0  0  0  0  0  0  0  0  0  0
   14.2329   -0.3869   -0.9641 H   0  0  0  0  0  0  0  0  0  0  0  0
   13.3628   -2.9521   -0.4737 C   0  0  0  0  0  0  0  0  0  0  0  0
   12.4729   -3.1761   -1.2917 O   0  0  0  0  0  0  0  0  0  0  0  0
   13.1088   -2.5459    0.8176 N   0  0  0  0  0  0  0  0  0  0  0  0
   11.7884   -2.2548    1.3794 C   0  0  0  0  0  0  0  0  0  0  0  0
   11.7097   -1.1996    1.6619 H   0  0  0  0  0  0  0  0  0  0  0  0
   11.0034   -2.4654    0.6435 H   0  0  0  0  0  0  0  0  0  0  0  0
   11.5934   -2.8699    2.2642 H   0  0  0  0  0  0  0  0  0  0  0  0
   14.3267   -2.4518    1.4549 C   0  0  0  0  0  0  0  0  0  0  0  0
   14.4946   -2.1433    2.7739 N   0  0  0  0  0  0  0  0  0  0  0  0
   13.6741   -2.0894    3.3753 H   0  0  0  0  0  0  0  0  0  0  0  0
   15.4203   -2.2403    3.1857 H   0  0  0  0  0  0  0  0  0  0  0  0
   15.3229   -2.7134    0.6677 N   0  0  0  0  0  4  0  0  0  0  0  0
   16.2889   -2.8014    0.9904 H   0  0  0  0  0  0  0  0  0  0  0  0
   14.3616   -5.3736   -1.7077 C   0  0  0  0  0  0  0  0  0  0  0  0
   13.4040   -4.9797   -2.0340 H   0  0  0  0  0  0  0  0  0  0  0  0
   14.6697   -6.7115   -1.9773 C   0  0  0  0  0  0  0  0  0  0  0  0
   13.9493   -7.3392   -2.4931 H   0  0  0  0  0  0  0  0  0  0  0  0
  1  2  1  0
  2  3  2  0
  3  4  1  0
  3  5  1  0
  5  6  1  0
  5  7  2  0
  7  8  1  0
  8  9  1  0
  9 10  2  0
 10 11  1  0
 10 12  1  0
 12 13  1  0
 12 14  2  0
 14 15  1  0
 14 16  1  0
 16 17  1  0
 17 18  1  0
 17 19  1  0
 17 20  1  0
 20 21  2  0
 20 22  1  0
 22 23  1  0
 23 24  1  0
 23 25  1  0
 23 26  1  0
 22 27  1  0
 27 28  1  0
 27 29  1  0
 27 30  1  0
 16 31  2  0
 31 32  1  0
  8 33  1  0
 33 34  2  0
 33 35  1  0
 35 36  1  0
 36 37  1  0
 36 38  1  0
 36 39  1  0
 35 40  1  0
 40 41  1  0
 41 42  1  0
 41 43  1  0
 40 44  2  0
 44 45  1  0
  7 46  1  0
 46 47  1  0
 46 48  2  0
 48 49  1  0
 48  2  1  0
 44  8  1  0
 31  9  1  0
M  CHG  1  44   1
M  END
>  <score>  (311) 
5.34434

$$$$

     RDKit          3D

 60 64  0  0  0  0  0  0  0  0999 V2000
    7.9585  -14.2374   -3.2783 H   0  0  0  0  0  0  0  0  0  0  0  0
    8.6877  -13.4553   -3.0847 C   0  0  0  0  0  0  0  0  0  0  0  0
    8.5419  -12.6410   -1.9553 C   0  0  0  0  0  0  0  0  0  0  0  0
    7.7076  -12.7797   -1.2711 H   0  0  0  0  0  0  0  0  0  0  0  0
    9.4687  -11.6196   -1.7130 C   0  0  0  0  0  0  0  0  0  0  0  0
    9.3676  -10.9849   -0.8410 H   0  0  0  0  0  0  0  0  0  0  0  0
   10.5358  -11.3775   -2.5859 C   0  0  0  0  0  0  0  0  0  0  0  0
   11.4260  -10.3176   -2.3117 N   0  0  0  0  0  0  0  0  0  0  0  0
   11.1392   -9.3709   -1.1955 C   0  0  0  0  0  0  0  0  0  0  0  0
   10.0616   -9.2073   -1.1095 H   0  0  0  0  0  0  0  0  0  0  0  0
   11.4903   -9.8174   -0.2587 H   0  0  0  0  0  0  0  0  0  0  0  0
   11.8462   -8.0000   -1.3727 C   0  0  0  0  0  0  0  0  0  0  0  0
   11.6595   -7.3787   -0.4890 H   0  0  0  0  0  0  0  0  0  0  0  0
   11.4285   -7.4836   -2.2418 H   0  0  0  0  0  0  0  0  0  0  0  0
   13.3049   -8.1891   -1.5634 N   0  0  0  0  0  0  0  0  0  0  0  0
   14.2575   -7.2079   -1.2157 C   0  0  0  0  0  0  0  0  0  0  0  0
   15.5906   -7.6070   -1.0947 C   0  0  0  0  0  0  0  0  0  0  0  0
   15.8336   -8.6490   -1.2472 H   0  0  0  0  0  0  0  0  0  0  0  0
   16.6061   -6.7035   -0.7809 C   0  0  0  0  0  0  0  0  0  0  0  0
   17.6371   -7.0389   -0.6971 H   0  0  0  0  0  0  0  0  0  0  0  0
   16.2863   -5.3630   -0.5679 C   0  0  0  0  0  0  0  0  0  0  0  0
   17.0721   -4.6525   -0.3234 H   0  0  0  0  0  0  0  0  0  0  0  0
   14.9599   -4.9144   -0.6499 C   0  0  0  0  0  0  0  0  0  0  0  0
   14.6558   -3.4449   -0.3555 C   0  0  0  0  0  0  0  0  0  0  0  0
   15.2078   -2.4803   -1.4020 C   0  0  0  0  0  0  0  0  0  0  0  0
   15.7285   -2.9473   -2.6260 C   0  0  0  0  0  0  0  0  0  0  0  0
   15.7062   -4.0048   -2.8741 H   0  0  0  0  0  0  0  0  0  0  0  0
   16.3065   -2.0599   -3.5425 C   0  0  0  0  0  0  0  0  0  0  0  0
   16.7360   -2.4127   -4.4762 H   0  0  0  0  0  0  0  0  0  0  0  0
   16.3554   -0.6943   -3.2592 C   0  0  0  0  0  0  0  0  0  0  0  0
   16.8310   -0.0114   -3.9548 H   0  0  0  0  0  0  0  0  0  0  0  0
   15.8229   -0.2058   -2.0644 C   0  0  0  0  0  0  0  0  0  0  0  0
   15.8778    0.8578   -1.8445 H   0  0  0  0  0  0  0  0  0  0  0  0
   15.2414   -1.0908   -1.1485 C   0  0  0  0  0  0  0  0  0  0  0  0
   14.8307   -0.6905   -0.2239 H   0  0  0  0  0  0  0  0  0  0  0  0
   13.1632   -3.1868   -0.0908 C   0  0  0  0  0  0  0  0  0  0  0  0
   12.2189   -3.3495   -0.8640 O   0  0  0  0  0  0  0  0  0  0  0  0
   13.0079   -2.6734    1.1752 N   0  0  0  0  0  0  0  0  0  0  0  0
   11.8187   -2.0300    1.7104 C   0  0  0  0  0  0  0  0  0  0  0  0
   11.6139   -2.3759    2.7265 H   0  0  0  0  0  0  0  0  0  0  0  0
   10.9441   -2.2588    1.0935 H   0  0  0  0  0  0  0  0  0  0  0  0
   11.9705   -0.9475    1.7369 H   0  0  0  0  0  0  0  0  0  0  0  0
   14.2685   -2.5248    1.6907 C   0  0  0  0  0  0  0  0  0  0  0  0
   14.5763   -1.8464    2.8179 N   0  0  0  0  0  0  0  0  0  0  0  0
   15.5172   -2.0088    3.1583 H   0  0  0  0  0  0  0  0  0  0  0  0
   13.8365   -1.7407    3.5080 H   0  0  0  0  0  0  0  0  0  0  0  0
   15.1925   -3.0546    0.9680 N   0  0  0  0  0  4  0  0  0  0  0  0
   16.1825   -2.8650    1.1445 H   0  0  0  0  0  0  0  0  0  0  0  0
   13.9508   -5.8520   -0.9943 C   0  0  0  0  0  0  0  0  0  0  0  0
   12.9184   -5.5428   -1.0941 H   0  0  0  0  0  0  0  0  0  0  0  0
   13.7537   -9.5537   -1.9524 C   0  0  0  0  0  0  0  0  0  0  0  0
   14.7456   -9.5086   -2.4098 H   0  0  0  0  0  0  0  0  0  0  0  0
   13.8123  -10.1825   -1.0555 H   0  0  0  0  0  0  0  0  0  0  0  0
   12.7645  -10.1885   -2.9483 C   0  0  0  0  0  0  0  0  0  0  0  0
   13.1431  -11.1613   -3.2726 H   0  0  0  0  0  0  0  0  0  0  0  0
   12.7100   -9.5408   -3.8270 H   0  0  0  0  0  0  0  0  0  0  0  0
   10.6707  -12.2161   -3.7021 C   0  0  0  0  0  0  0  0  0  0  0  0
   11.5098  -12.0891   -4.3675 H   0  0  0  0  0  0  0  0  0  0  0  0
    9.7687  -13.2552   -3.9538 C   0  0  0  0  0  0  0  0  0  0  0  0
    9.9213  -13.8836   -4.8289 H   0  0  0  0  0  0  0  0  0  0  0  0
  1  2  1  0
  2  3  2  0
  3  4  1  0
  3  5  1  0
  5  6  1  0
  5  7  2  0
  7  8  1  0
  8  9  1  0
  9 10  1  0
  9 11  1  0
  9 12  1  0
 12 13  1  0
 12 14  1  0
 12 15  1  0
 15 16  1  0
 16 17  2  0
 17 18  1  0
 17 19  1  0
 19 20  1  0
 19 21  2  0
 21 22  1  0
 21 23  1  0
 23 24  1  0
 24 25  1  0
 25 26  2  0
 26 27  1  0
 26 28  1  0
 28 29  1  0
 28 30  2  0
 30 31  1  0
 30 32  1  0
 32 33  1  0
 32 34  2  0
 34 35  1  0
 24 36  1  0
 36 37  2  0
 36 38  1  0
 38 39  1  0
 39 40  1  0
 39 41  1  0
 39 42  1  0
 38 43  1  0
 43 44  1  0
 44 45  1  0
 44 46  1  0
 43 47  2  0
 47 48  1  0
 23 49  2  0
 49 50  1  0
 15 51  1  0
 51 52  1  0
 51 53  1  0
 51 54  1  0
 54 55  1  0
 54 56  1  0
  7 57  1  0
 57 58  1  0
 57 59  2  0
 59 60  1  0
 59  2  1  0
 54  8  1  0
 49 16  1  0
 47 24  1  0
 34 25  1  0
M  CHG  1  47   1
M  END
>  <score>  (312) 
5.343

$$$$

     RDKit          3D

 46 49  0  0  0  0  0  0  0  0999 V2000
   10.2902   -8.6684   -1.9284 H   0  0  0  0  0  0  0  0  0  0  0  0
   11.3441   -8.8049   -2.1577 C   0  0  0  0  0  0  0  0  0  0  0  0
   11.7380   -9.8996   -2.7842 N   0  0  0  0  0  0  0  0  0  0  0  0
   13.0240   -9.9840   -2.9892 C   0  0  0  0  0  0  0  0  0  0  0  0
   13.3923  -10.9286   -3.8064 N   0  0  0  0  0  0  0  0  0  0  0  0
   12.5841  -11.1340   -4.3754 H   0  0  0  0  0  0  0  0  0  0  0  0
   14.2066  -10.5712   -4.2754 H   0  0  0  0  0  0  0  0  0  0  0  0
   13.9643   -9.1177   -2.7440 N   0  0  0  0  0  0  0  0  0  0  0  0
   13.5841   -8.0177   -2.1055 C   0  0  0  0  0  0  0  0  0  0  0  0
   14.5881   -7.0225   -1.6789 C   0  0  0  0  0  0  0  0  0  0  0  0
   15.9005   -7.4340   -1.3771 C   0  0  0  0  0  0  0  0  0  0  0  0
   16.1784   -8.4804   -1.4728 H   0  0  0  0  0  0  0  0  0  0  0  0
   16.8478   -6.5195   -0.9135 C   0  0  0  0  0  0  0  0  0  0  0  0
   17.8489   -6.8533   -0.6596 H   0  0  0  0  0  0  0  0  0  0  0  0
   16.5106   -5.1776   -0.7513 C   0  0  0  0  0  0  0  0  0  0  0  0
   17.2574   -4.4784   -0.3844 H   0  0  0  0  0  0  0  0  0  0  0  0
   15.2106   -4.7279   -1.0123 C   0  0  0  0  0  0  0  0  0  0  0  0
   14.8751   -3.2636   -0.7244 C   0  0  0  0  0  0  0  0  0  0  0  0
   15.4145   -2.2785   -1.7592 C   0  0  0  0  0  0  0  0  0  0  0  0
   15.9494   -2.6893   -2.9955 C   0  0  0  0  0  0  0  0  0  0  0  0
   16.0018   -3.7466   -3.2396 H   0  0  0  0  0  0  0  0  0  0  0  0
   16.4229   -1.7424   -3.9146 C   0  0  0  0  0  0  0  0  0  0  0  0
   16.8424   -2.0605   -4.8616 H   0  0  0  0  0  0  0  0  0  0  0  0
   16.3627   -0.3789   -3.6163 C   0  0  0  0  0  0  0  0  0  0  0  0
   16.7384    0.3510   -4.3273 H   0  0  0  0  0  0  0  0  0  0  0  0
   15.8120    0.0419   -2.4053 C   0  0  0  0  0  0  0  0  0  0  0  0
   15.7543    1.0997   -2.1709 H   0  0  0  0  0  0  0  0  0  0  0  0
   15.3386   -0.9000   -1.4884 C   0  0  0  0  0  0  0  0  0  0  0  0
   14.9142   -0.5597   -0.5472 H   0  0  0  0  0  0  0  0  0  0  0  0
   13.3716   -3.0183   -0.4893 C   0  0  0  0  0  0  0  0  0  0  0  0
   12.4607   -3.1650   -1.3008 O   0  0  0  0  0  0  0  0  0  0  0  0
   13.1686   -2.6194    0.8171 N   0  0  0  0  0  0  0  0  0  0  0  0
   11.9086   -2.2906    1.4753 C   0  0  0  0  0  0  0  0  0  0  0  0
   11.0642   -2.8230    1.0247 H   0  0  0  0  0  0  0  0  0  0  0  0
   11.7218   -1.2135    1.4072 H   0  0  0  0  0  0  0  0  0  0  0  0
   11.9585   -2.5685    2.5352 H   0  0  0  0  0  0  0  0  0  0  0  0
   14.3897   -2.6326    1.4400 C   0  0  0  0  0  0  0  0  0  0  0  0
   14.5408   -2.4366    2.7829 N   0  0  0  0  0  0  0  0  0  0  0  0
   15.4811   -2.2697    3.1321 H   0  0  0  0  0  0  0  0  0  0  0  0
   13.7517   -2.0574    3.2978 H   0  0  0  0  0  0  0  0  0  0  0  0
   15.3578   -2.9144    0.6366 N   0  0  0  0  0  4  0  0  0  0  0  0
   16.2813   -3.1755    0.9847 H   0  0  0  0  0  0  0  0  0  0  0  0
   14.2598   -5.6578   -1.4927 C   0  0  0  0  0  0  0  0  0  0  0  0
   13.2557   -5.3063   -1.7204 H   0  0  0  0  0  0  0  0  0  0  0  0
   12.2456   -7.8271   -1.7925 C   0  0  0  0  0  0  0  0  0  0  0  0
   11.9244   -6.9505   -1.2478 H   0  0  0  0  0  0  0  0  0  0  0  0
  1  2  1  0
  2  3  2  0
  3  4  1  0
  4  5  1  0
  5  6  1  0
  5  7  1  0
  4  8  2  0
  8  9  1  0
  9 10  1  0
 10 11  2  0
 11 12  1  0
 11 13  1  0
 13 14  1  0
 13 15  2  0
 15 16  1  0
 15 17  1  0
 17 18  1  0
 18 19  1  0
 19 20  2  0
 20 21  1  0
 20 22  1  0
 22 23  1  0
 22 24  2  0
 24 25  1  0
 24 26  1  0
 26 27  1  0
 26 28  2  0
 28 29  1  0
 18 30  1  0
 30 31  2  0
 30 32  1  0
 32 33  1  0
 33 34  1  0
 33 35  1  0
 33 36  1  0
 32 37  1  0
 37 38  1  0
 38 39  1  0
 38 40  1  0
 37 41  2  0
 41 42  1  0
 17 43  2  0
 43 44  1  0
  9 45  2  0
 45 46  1  0
 45  2  1  0
 43 10  1  0
 41 18  1  0
 28 19  1  0
M  CHG  1  41   1
M  END
>  <score>  (313) 
5.34095

$$$$

     RDKit          3D

 49 51  0  0  0  0  0  0  0  0999 V2000
   16.0979   -8.4580   -1.6174 H   0  0  0  0  0  0  0  0  0  0  0  0
   15.8594   -7.4059   -1.4864 C   0  0  0  0  0  0  0  0  0  0  0  0
   16.7427   -6.5631   -0.8055 C   0  0  0  0  0  0  0  0  0  0  0  0
   17.6730   -6.9593   -0.4089 H   0  0  0  0  0  0  0  0  0  0  0  0
   16.4140   -5.2160   -0.6091 C   0  0  0  0  0  0  0  0  0  0  0  0
   17.0820   -4.5664   -0.0512 H   0  0  0  0  0  0  0  0  0  0  0  0
   15.1986   -4.6889   -1.0721 C   0  0  0  0  0  0  0  0  0  0  0  0
   14.8300   -3.2368   -0.7550 C   0  0  0  0  0  0  0  0  0  0  0  0
   15.3778   -2.2118   -1.7456 C   0  0  0  0  0  0  0  0  0  0  0  0
   15.9259   -2.6143   -2.9754 C   0  0  0  0  0  0  0  0  0  0  0  0
   15.9792   -3.6736   -3.2114 H   0  0  0  0  0  0  0  0  0  0  0  0
   16.4045   -1.6709   -3.8928 C   0  0  0  0  0  0  0  0  0  0  0  0
   16.8342   -1.9863   -4.8403 H   0  0  0  0  0  0  0  0  0  0  0  0
   16.3286   -0.3101   -3.5860 C   0  0  0  0  0  0  0  0  0  0  0  0
   16.7046    0.4351   -4.2787 H   0  0  0  0  0  0  0  0  0  0  0  0
   15.7754    0.1304   -2.3861 C   0  0  0  0  0  0  0  0  0  0  0  0
   15.7387    1.4913   -2.2066 O   0  0  0  0  0  0  0  0  0  0  0  0
   15.2124    1.9977   -0.9749 C   0  0  0  0  0  0  0  0  0  0  0  0
   14.1646    1.6919   -0.8647 H   0  0  0  0  0  0  0  0  0  0  0  0
   15.7922    1.5982   -0.1331 H   0  0  0  0  0  0  0  0  0  0  0  0
   15.3285    3.5331   -1.0367 C   0  0  0  0  0  0  0  0  0  0  0  0
   14.6980    3.9096   -1.8524 H   0  0  0  0  0  0  0  0  0  0  0  0
   16.3688    3.8005   -1.2593 H   0  0  0  0  0  0  0  0  0  0  0  0
   14.9286    4.2381    0.2636 C   0  0  0  0  0  0  0  0  0  0  0  0
   15.1779    5.3019    0.1791 H   0  0  0  0  0  0  0  0  0  0  0  0
   15.4854    3.8253    1.1127 H   0  0  0  0  0  0  0  0  0  0  0  0
   13.4398    4.1305    0.5328 C   0  0  0  0  0  0  0  0  0  0  0  0
   12.8581    4.4909   -0.3235 H   0  0  0  0  0  0  0  0  0  0  0  0
   13.2223    4.7550    1.4009 H   0  0  0  0  0  0  0  0  0  0  0  0
   13.1533    3.0967    0.7458 H   0  0  0  0  0  0  0  0  0  0  0  0
   15.2985   -0.8247   -1.4706 C   0  0  0  0  0  0  0  0  0  0  0  0
   14.8689   -0.4694   -0.5399 H   0  0  0  0  0  0  0  0  0  0  0  0
   13.3100   -3.0376   -0.5902 C   0  0  0  0  0  0  0  0  0  0  0  0
   12.4553   -3.1293   -1.4673 O   0  0  0  0  0  0  0  0  0  0  0  0
   13.0300   -2.6814    0.7150 N   0  0  0  0  0  0  0  0  0  0  0  0
   11.7269   -2.3139    1.2737 C   0  0  0  0  0  0  0  0  0  0  0  0
   11.5069   -2.9180    2.1621 H   0  0  0  0  0  0  0  0  0  0  0  0
   11.7151   -1.2547    1.5572 H   0  0  0  0  0  0  0  0  0  0  0  0
   10.9224   -2.4777    0.5452 H   0  0  0  0  0  0  0  0  0  0  0  0
   14.2395   -2.6227    1.3738 C   0  0  0  0  0  0  0  0  0  0  0  0
   14.4139   -2.2935    2.6788 N   0  0  0  0  0  0  0  0  0  0  0  0
   15.3490   -2.3314    3.0789 H   0  0  0  0  0  0  0  0  0  0  0  0
   13.6001   -2.1237    3.2645 H   0  0  0  0  0  0  0  0  0  0  0  0
   15.2496   -2.9166    0.6255 N   0  0  0  0  0  4  0  0  0  0  0  0
   16.2155   -2.9765    0.9604 H   0  0  0  0  0  0  0  0  0  0  0  0
   14.3216   -5.5482   -1.7645 C   0  0  0  0  0  0  0  0  0  0  0  0
   13.3646   -5.1700   -2.1114 H   0  0  0  0  0  0  0  0  0  0  0  0
   14.6499   -6.8985   -1.9709 C   0  0  0  0  0  0  0  0  0  0  0  0
   13.9589   -7.5616   -2.4852 H   0  0  0  0  0  0  0  0  0  0  0  0
  1  2  1  0
  2  3  2  0
  3  4  1  0
  3  5  1  0
  5  6  1  0
  5  7  2  0
  7  8  1  0
  8  9  1  0
  9 10  2  0
 10 11  1  0
 10 12  1  0
 12 13  1  0
 12 14  2  0
 14 15  1  0
 14 16  1  0
 16 17  1  0
 17 18  1  0
 18 19  1  0
 18 20  1  0
 18 21  1  0
 21 22  1  0
 21 23  1  0
 21 24  1  0
 24 25  1  0
 24 26  1  0
 24 27  1  0
 27 28  1  0
 27 29  1  0
 27 30  1  0
 16 31  2  0
 31 32  1  0
  8 33  1  0
 33 34  2  0
 33 35  1  0
 35 36  1  0
 36 37  1  0
 36 38  1  0
 36 39  1  0
 35 40  1  0
 40 41  1  0
 41 42  1  0
 41 43  1  0
 40 44  2  0
 44 45  1  0
  7 46  1  0
 46 47  1  0
 46 48  2  0
 48 49  1  0
 48  2  1  0
 44  8  1  0
 31  9  1  0
M  CHG  1  44   1
M  END
>  <score>  (314) 
5.33763

$$$$

     RDKit          3D

 49 52  0  0  0  0  0  0  0  0999 V2000
   16.0710   -8.4748   -1.7081 H   0  0  0  0  0  0  0  0  0  0  0  0
   15.8116   -7.4298   -1.5729 C   0  0  0  0  0  0  0  0  0  0  0  0
   16.7159   -6.5747   -0.9346 C   0  0  0  0  0  0  0  0  0  0  0  0
   17.6687   -6.9492   -0.5660 H   0  0  0  0  0  0  0  0  0  0  0  0
   16.3808   -5.2318   -0.7417 C   0  0  0  0  0  0  0  0  0  0  0  0
   17.0742   -4.5670   -0.2324 H   0  0  0  0  0  0  0  0  0  0  0  0
   15.1415   -4.7236   -1.1591 C   0  0  0  0  0  0  0  0  0  0  0  0
   14.8025   -3.2639   -0.8420 C   0  0  0  0  0  0  0  0  0  0  0  0
   15.3549   -2.2470   -1.8305 C   0  0  0  0  0  0  0  0  0  0  0  0
   15.9119   -2.6247   -3.0590 C   0  0  0  0  0  0  0  0  0  0  0  0
   15.9499   -3.6745   -3.3328 H   0  0  0  0  0  0  0  0  0  0  0  0
   16.4381   -1.6597   -3.9256 C   0  0  0  0  0  0  0  0  0  0  0  0
   16.8838   -1.9610   -4.8677 H   0  0  0  0  0  0  0  0  0  0  0  0
   16.4000   -0.3025   -3.5762 C   0  0  0  0  0  0  0  0  0  0  0  0
   16.8099    0.4468   -4.2431 H   0  0  0  0  0  0  0  0  0  0  0  0
   15.8238    0.1144   -2.3695 C   0  0  0  0  0  0  0  0  0  0  0  0
   15.7704    1.4796   -2.0113 N   0  0  0  0  0  0  0  0  0  0  0  0
   15.0149    1.8777   -0.7949 C   0  0  0  0  0  0  0  0  0  0  0  0
   13.9644    1.5921   -0.9186 H   0  0  0  0  0  0  0  0  0  0  0  0
   15.4239    1.3311    0.0590 H   0  0  0  0  0  0  0  0  0  0  0  0
   15.0802    3.3801   -0.4664 C   0  0  0  0  0  0  0  0  0  0  0  0
   16.0405    3.6035    0.0112 H   0  0  0  0  0  0  0  0  0  0  0  0
   14.2870    3.6363    0.2422 H   0  0  0  0  0  0  0  0  0  0  0  0
   14.9419    4.1808   -1.6457 O   0  0  0  0  0  0  0  0  0  0  0  0
   16.0408    3.9321   -2.5282 C   0  0  0  0  0  0  0  0  0  0  0  0
   15.9863    4.6355   -3.3572 H   0  0  0  0  0  0  0  0  0  0  0  0
   16.9854    4.1076   -2.0021 H   0  0  0  0  0  0  0  0  0  0  0  0
   16.0136    2.4915   -3.0628 C   0  0  0  0  0  0  0  0  0  0  0  0
   15.2287    2.4035   -3.8205 H   0  0  0  0  0  0  0  0  0  0  0  0
   16.9737    2.2824   -3.5421 H   0  0  0  0  0  0  0  0  0  0  0  0
   15.3068   -0.8709   -1.5200 C   0  0  0  0  0  0  0  0  0  0  0  0
   14.8770   -0.5380   -0.5832 H   0  0  0  0  0  0  0  0  0  0  0  0
   13.3060   -3.0410   -0.6025 C   0  0  0  0  0  0  0  0  0  0  0  0
   12.3976   -3.2067   -1.4086 O   0  0  0  0  0  0  0  0  0  0  0  0
   13.0819   -2.5840    0.6774 N   0  0  0  0  0  0  0  0  0  0  0  0
   11.7961   -2.2073    1.2543 C   0  0  0  0  0  0  0  0  0  0  0  0
   11.0067   -2.8428    0.8474 H   0  0  0  0  0  0  0  0  0  0  0  0
   11.7997   -2.3513    2.3348 H   0  0  0  0  0  0  0  0  0  0  0  0
   11.5469   -1.1602    1.0491 H   0  0  0  0  0  0  0  0  0  0  0  0
   14.3086   -2.5194    1.2904 C   0  0  0  0  0  0  0  0  0  0  0  0
   14.5596   -2.1516    2.5743 N   0  0  0  0  0  0  0  0  0  0  0  0
   15.5060   -2.3407    2.9112 H   0  0  0  0  0  0  0  0  0  0  0  0
   13.7855   -2.2551    3.2266 H   0  0  0  0  0  0  0  0  0  0  0  0
   15.2681   -2.8878    0.5075 N   0  0  0  0  0  4  0  0  0  0  0  0
   16.2544   -2.8628    0.7701 H   0  0  0  0  0  0  0  0  0  0  0  0
   14.2532   -5.5879   -1.8461 C   0  0  0  0  0  0  0  0  0  0  0  0
   13.2907   -5.2310   -2.2071 H   0  0  0  0  0  0  0  0  0  0  0  0
   14.5899   -6.9380   -2.0490 C   0  0  0  0  0  0  0  0  0  0  0  0
   13.9051   -7.6174   -2.5543 H   0  0  0  0  0  0  0  0  0  0  0  0
  1  2  1  0
  2  3  2  0
  3  4  1  0
  3  5  1  0
  5  6  1  0
  5  7  2  0
  7  8  1  0
  8  9  1  0
  9 10  2  0
 10 11  1  0
 10 12  1  0
 12 13  1  0
 12 14  2  0
 14 15  1  0
 14 16  1  0
 16 17  1  0
 17 18  1  0
 18 19  1  0
 18 20  1  0
 18 21  1  0
 21 22  1  0
 21 23  1  0
 21 24  1  0
 24 25  1  0
 25 26  1  0
 25 27  1  0
 25 28  1  0
 28 29  1  0
 28 30  1  0
 16 31  2  0
 31 32  1  0
  8 33  1  0
 33 34  2  0
 33 35  1  0
 35 36  1  0
 36 37  1  0
 36 38  1  0
 36 39  1  0
 35 40  1  0
 40 41  1  0
 41 42  1  0
 41 43  1  0
 40 44  2  0
 44 45  1  0
  7 46  1  0
 46 47  1  0
 46 48  2  0
 48 49  1  0
 48  2  1  0
 44  8  1  0
 31  9  1  0
 28 17  1  0
M  CHG  1  44   1
M  END
>  <score>  (315) 
5.33651

$$$$

     RDKit          3D

 44 47  0  0  0  0  0  0  0  0999 V2000
   10.3711   -9.3216   -2.2524 H   0  0  0  0  0  0  0  0  0  0  0  0
   11.1633   -8.6494   -1.9372 C   0  0  0  0  0  0  0  0  0  0  0  0
   12.4832   -8.7862   -2.3466 N   0  0  0  0  0  0  0  0  0  0  0  0
   13.2024   -7.8327   -1.8218 C   0  0  0  0  0  0  0  0  0  0  0  0
   14.5370   -7.7986   -2.1769 N   0  0  0  0  0  0  0  0  0  0  0  0
   14.9256   -8.6817   -2.4864 H   0  0  0  0  0  0  0  0  0  0  0  0
   15.3943   -6.7924   -1.7591 C   0  0  0  0  0  0  0  0  0  0  0  0
   16.7455   -7.0671   -1.5588 C   0  0  0  0  0  0  0  0  0  0  0  0
   17.0997   -8.0643   -1.7966 H   0  0  0  0  0  0  0  0  0  0  0  0
   17.5795   -6.0701   -1.0385 C   0  0  0  0  0  0  0  0  0  0  0  0
   18.6169   -6.3010   -0.8177 H   0  0  0  0  0  0  0  0  0  0  0  0
   17.0579   -4.7962   -0.7666 C   0  0  0  0  0  0  0  0  0  0  0  0
   17.7165   -4.0305   -0.3702 H   0  0  0  0  0  0  0  0  0  0  0  0
   15.6950   -4.5063   -0.9568 C   0  0  0  0  0  0  0  0  0  0  0  0
   15.1106   -3.1385   -0.6011 C   0  0  0  0  0  0  0  0  0  0  0  0
   15.5338   -2.0795   -1.6128 C   0  0  0  0  0  0  0  0  0  0  0  0
   15.9330   -2.4478   -2.9075 C   0  0  0  0  0  0  0  0  0  0  0  0
   15.9453   -3.4970   -3.1779 H   0  0  0  0  0  0  0  0  0  0  0  0
   16.3177   -1.4895   -3.8486 C   0  0  0  0  0  0  0  0  0  0  0  0
   16.6315   -1.7974   -4.8417 H   0  0  0  0  0  0  0  0  0  0  0  0
   16.3038   -0.1371   -3.5033 C   0  0  0  0  0  0  0  0  0  0  0  0
   16.6156    0.6092   -4.2248 H   0  0  0  0  0  0  0  0  0  0  0  0
   15.8808    0.2549   -2.2309 C   0  0  0  0  0  0  0  0  0  0  0  0
   15.8645    1.3066   -1.9605 H   0  0  0  0  0  0  0  0  0  0  0  0
   15.4856   -0.7112   -1.2989 C   0  0  0  0  0  0  0  0  0  0  0  0
   15.1483   -0.3960   -0.3173 H   0  0  0  0  0  0  0  0  0  0  0  0
   13.5768   -3.1289   -0.4298 C   0  0  0  0  0  0  0  0  0  0  0  0
   12.7364   -3.4197   -1.2805 O   0  0  0  0  0  0  0  0  0  0  0  0
   13.2380   -2.6997    0.8395 N   0  0  0  0  0  0  0  0  0  0  0  0
   11.9009   -2.3790    1.3521 C   0  0  0  0  0  0  0  0  0  0  0  0
   11.8307   -1.3160    1.6083 H   0  0  0  0  0  0  0  0  0  0  0  0
   11.6689   -2.9604    2.2515 H   0  0  0  0  0  0  0  0  0  0  0  0
   11.1282   -2.5969    0.6075 H   0  0  0  0  0  0  0  0  0  0  0  0
   14.4173   -2.4930    1.5145 C   0  0  0  0  0  0  0  0  0  0  0  0
   14.5142   -2.0645    2.8058 N   0  0  0  0  0  0  0  0  0  0  0  0
   15.4218   -2.1565    3.2589 H   0  0  0  0  0  0  0  0  0  0  0  0
   13.6760   -2.0858    3.3831 H   0  0  0  0  0  0  0  0  0  0  0  0
   15.4515   -2.7493    0.7858 N   0  0  0  0  0  4  0  0  0  0  0  0
   16.4078   -2.6808    1.1329 H   0  0  0  0  0  0  0  0  0  0  0  0
   14.8879   -5.5205   -1.4895 C   0  0  0  0  0  0  0  0  0  0  0  0
   13.8421   -5.3345   -1.7015 H   0  0  0  0  0  0  0  0  0  0  0  0
   12.3569   -6.7107   -0.7522 S   0  0  0  0  0  0  0  0  0  0  0  0
   10.9004   -7.5956   -1.1069 C   0  0  0  0  0  0  0  0  0  0  0  0
    9.9186   -7.3531   -0.7170 H   0  0  0  0  0  0  0  0  0  0  0  0
  1  2  1  0
  2  3  1  0
  3  4  2  0
  4  5  1  0
  5  6  1  0
  5  7  1  0
  7  8  2  0
  8  9  1  0
  8 10  1  0
 10 11  1  0
 10 12  2  0
 12 13  1  0
 12 14  1  0
 14 15  1  0
 15 16  1  0
 16 17  2  0
 17 18  1  0
 17 19  1  0
 19 20  1  0
 19 21  2  0
 21 22  1  0
 21 23  1  0
 23 24  1  0
 23 25  2  0
 25 26  1  0
 15 27  1  0
 27 28  2  0
 27 29  1  0
 29 30  1  0
 30 31  1  0
 30 32  1  0
 30 33  1  0
 29 34  1  0
 34 35  1  0
 35 36  1  0
 35 37  1  0
 34 38  2  0
 38 39  1  0
 14 40  2  0
 40 41  1  0
  4 42  1  0
 42 43  1  0
 43 44  1  0
 43  2  2  0
 40  7  1  0
 38 15  1  0
 25 16  1  0
M  CHG  1  38   1
M  END
>  <score>  (316) 
5.33616

$$$$

     RDKit          3D

 47 50  0  0  0  0  0  0  0  0999 V2000
   16.0927   -8.4001   -1.6842 H   0  0  0  0  0  0  0  0  0  0  0  0
   15.8693   -7.3529   -1.5069 C   0  0  0  0  0  0  0  0  0  0  0  0
   16.7770   -6.5464   -0.8118 C   0  0  0  0  0  0  0  0  0  0  0  0
   17.7154   -6.9619   -0.4567 H   0  0  0  0  0  0  0  0  0  0  0  0
   16.4751   -5.2043   -0.5606 C   0  0  0  0  0  0  0  0  0  0  0  0
   17.1855   -4.5829   -0.0215 H   0  0  0  0  0  0  0  0  0  0  0  0
   15.2553   -4.6527   -0.9850 C   0  0  0  0  0  0  0  0  0  0  0  0
   14.8958   -3.2074   -0.6656 C   0  0  0  0  0  0  0  0  0  0  0  0
   15.4157   -2.2029   -1.6917 C   0  0  0  0  0  0  0  0  0  0  0  0
   16.0055   -2.6235   -2.8949 C   0  0  0  0  0  0  0  0  0  0  0  0
   16.1210   -3.6862   -3.0853 H   0  0  0  0  0  0  0  0  0  0  0  0
   16.4272   -1.6918   -3.8507 C   0  0  0  0  0  0  0  0  0  0  0  0
   16.9020   -2.0342   -4.7645 H   0  0  0  0  0  0  0  0  0  0  0  0
   16.1945   -0.3284   -3.6405 C   0  0  0  0  0  0  0  0  0  0  0  0
   16.4961    0.3942   -4.3924 H   0  0  0  0  0  0  0  0  0  0  0  0
   15.5452    0.1141   -2.4838 C   0  0  0  0  0  0  0  0  0  0  0  0
   15.1518    1.4294   -2.3875 O   0  0  0  0  0  0  0  0  0  0  0  0
   15.3667    2.0960   -1.2039 C   0  0  0  0  0  0  0  0  0  0  0  0
   14.6898    3.3021   -0.9655 C   0  0  0  0  0  0  0  0  0  0  0  0
   13.9148    3.6332   -1.6532 H   0  0  0  0  0  0  0  0  0  0  0  0
   15.0523    4.1031    0.1297 C   0  0  0  0  0  0  0  0  0  0  0  0
   14.6054    5.0748    0.3008 H   0  0  0  0  0  0  0  0  0  0  0  0
   16.0413    3.6849    1.0160 C   0  0  0  0  0  0  0  0  0  0  0  0
   16.3882    4.4749    2.0537 F   0  0  0  0  0  0  0  0  0  0  0  0
   16.6791    2.4635    0.8124 C   0  0  0  0  0  0  0  0  0  0  0  0
   17.4656    2.1607    1.4962 H   0  0  0  0  0  0  0  0  0  0  0  0
   16.3208    1.6580   -0.2769 C   0  0  0  0  0  0  0  0  0  0  0  0
   16.7975    0.7040   -0.4755 H   0  0  0  0  0  0  0  0  0  0  0  0
   15.2083   -0.8220   -1.4949 C   0  0  0  0  0  0  0  0  0  0  0  0
   14.7318   -0.4541   -0.5912 H   0  0  0  0  0  0  0  0  0  0  0  0
   13.3743   -3.0227   -0.5018 C   0  0  0  0  0  0  0  0  0  0  0  0
   12.5105   -3.1969   -1.3585 O   0  0  0  0  0  0  0  0  0  0  0  0
   13.0933   -2.6176    0.7860 N   0  0  0  0  0  0  0  0  0  0  0  0
   11.7726   -2.2846    1.3209 C   0  0  0  0  0  0  0  0  0  0  0  0
   10.9921   -2.4755    0.5746 H   0  0  0  0  0  0  0  0  0  0  0  0
   11.5474   -2.8886    2.2072 H   0  0  0  0  0  0  0  0  0  0  0  0
   11.7280   -1.2251    1.5954 H   0  0  0  0  0  0  0  0  0  0  0  0
   14.2938   -2.5486    1.4590 C   0  0  0  0  0  0  0  0  0  0  0  0
   14.4635   -2.2127    2.7672 N   0  0  0  0  0  0  0  0  0  0  0  0
   13.6484   -2.0788    3.3643 H   0  0  0  0  0  0  0  0  0  0  0  0
   15.3953   -2.2670    3.1741 H   0  0  0  0  0  0  0  0  0  0  0  0
   15.3034   -2.8599    0.7124 N   0  0  0  0  0  4  0  0  0  0  0  0
   16.2534   -2.9764    1.0713 H   0  0  0  0  0  0  0  0  0  0  0  0
   14.3652   -5.4664   -1.7095 C   0  0  0  0  0  0  0  0  0  0  0  0
   13.4259   -5.0545   -2.0685 H   0  0  0  0  0  0  0  0  0  0  0  0
   14.6660   -6.8073   -1.9648 C   0  0  0  0  0  0  0  0  0  0  0  0
   13.9583   -7.4249   -2.5097 H   0  0  0  0  0  0  0  0  0  0  0  0
  1  2  1  0
  2  3  2  0
  3  4  1  0
  3  5  1  0
  5  6  1  0
  5  7  2  0
  7  8  1  0
  8  9  1  0
  9 10  2  0
 10 11  1  0
 10 12  1  0
 12 13  1  0
 12 14  2  0
 14 15  1  0
 14 16  1  0
 16 17  1  0
 17 18  1  0
 18 19  2  0
 19 20  1  0
 19 21  1  0
 21 22  1  0
 21 23  2  0
 23 24  1  0
 23 25  1  0
 25 26  1  0
 25 27  2  0
 27 28  1  0
 16 29  2  0
 29 30  1  0
  8 31  1  0
 31 32  2  0
 31 33  1  0
 33 34  1  0
 34 35  1  0
 34 36  1  0
 34 37  1  0
 33 38  1  0
 38 39  1  0
 39 40  1  0
 39 41  1  0
 38 42  2  0
 42 43  1  0
  7 44  1  0
 44 45  1  0
 44 46  2  0
 46 47  1  0
 46  2  1  0
 42  8  1  0
 29  9  1  0
 27 18  1  0
M  CHG  1  42   1
M  END
>  <score>  (317) 
5.3358

$$$$

     RDKit          3D

 50 52  0  0  0  0  0  0  0  0999 V2000
   16.0912   -8.4082   -1.6662 H   0  0  0  0  0  0  0  0  0  0  0  0
   15.8590   -7.3619   -1.4972 C   0  0  0  0  0  0  0  0  0  0  0  0
   16.7633   -6.5467   -0.8058 C   0  0  0  0  0  0  0  0  0  0  0  0
   17.7008   -6.9501   -0.4330 H   0  0  0  0  0  0  0  0  0  0  0  0
   16.4567   -5.2029   -0.5797 C   0  0  0  0  0  0  0  0  0  0  0  0
   17.1611   -4.5731   -0.0425 H   0  0  0  0  0  0  0  0  0  0  0  0
   15.2349   -4.6697   -1.0185 C   0  0  0  0  0  0  0  0  0  0  0  0
   14.8554   -3.2386   -0.7084 C   0  0  0  0  0  0  0  0  0  0  0  0
   15.3846   -2.2350   -1.7187 C   0  0  0  0  0  0  0  0  0  0  0  0
   15.9381   -2.6289   -2.9484 C   0  0  0  0  0  0  0  0  0  0  0  0
   16.0101   -3.6846   -3.1985 H   0  0  0  0  0  0  0  0  0  0  0  0
   16.3906   -1.6705   -3.8616 C   0  0  0  0  0  0  0  0  0  0  0  0
   16.8227   -1.9816   -4.8078 H   0  0  0  0  0  0  0  0  0  0  0  0
   16.2827   -0.3078   -3.5592 C   0  0  0  0  0  0  0  0  0  0  0  0
   16.6424    0.4295   -4.2706 H   0  0  0  0  0  0  0  0  0  0  0  0
   15.7019    0.1069   -2.3508 C   0  0  0  0  0  0  0  0  0  0  0  0
   15.5506    1.5697   -2.0251 C   0  0  0  0  0  0  0  0  0  0  0  0
   16.1744    2.1628   -2.6999 H   0  0  0  0  0  0  0  0  0  0  0  0
   15.8905    1.7473   -0.9959 H   0  0  0  0  0  0  0  0  0  0  0  0
   14.1370    1.9730   -2.1829 N   0  0  0  0  0  0  0  0  0  0  0  0
   13.5398    1.4324   -1.5625 H   0  0  0  0  0  0  0  0  0  0  0  0
   13.8108    3.4029   -2.1173 C   0  0  0  0  0  0  0  0  0  0  0  0
   12.7214    3.5201   -2.0978 H   0  0  0  0  0  0  0  0  0  0  0  0
   14.4091    4.1239   -0.9153 C   0  0  0  0  0  0  0  0  0  0  0  0
   15.4951    3.9980   -0.8746 H   0  0  0  0  0  0  0  0  0  0  0  0
   13.9823    3.7643    0.0196 H   0  0  0  0  0  0  0  0  0  0  0  0
   14.1927    5.1909   -1.0157 H   0  0  0  0  0  0  0  0  0  0  0  0
   14.3829    4.1084   -3.3269 C   0  0  0  0  0  0  0  0  0  0  0  0
   14.1626    5.1737   -3.2829 H   0  0  0  0  0  0  0  0  0  0  0  0
   13.9665    3.7078   -4.2506 H   0  0  0  0  0  0  0  0  0  0  0  0
   15.4672    3.9908   -3.3325 H   0  0  0  0  0  0  0  0  0  0  0  0
   15.2618   -0.8633   -1.4427 C   0  0  0  0  0  0  0  0  0  0  0  0
   14.8085   -0.5475   -0.5070 H   0  0  0  0  0  0  0  0  0  0  0  0
   13.3340   -3.0674   -0.5375 C   0  0  0  0  0  0  0  0  0  0  0  0
   12.4649   -3.2522   -1.3867 O   0  0  0  0  0  0  0  0  0  0  0  0
   13.0691   -2.6672    0.7575 N   0  0  0  0  0  0  0  0  0  0  0  0
   11.7640   -2.3065    1.3048 C   0  0  0  0  0  0  0  0  0  0  0  0
   11.5388   -2.9030    2.1966 H   0  0  0  0  0  0  0  0  0  0  0  0
   10.9688   -2.4811    0.5702 H   0  0  0  0  0  0  0  0  0  0  0  0
   11.7499   -1.2454    1.5776 H   0  0  0  0  0  0  0  0  0  0  0  0
   14.2779   -2.5755    1.4136 C   0  0  0  0  0  0  0  0  0  0  0  0
   14.4630   -2.1975    2.7075 N   0  0  0  0  0  0  0  0  0  0  0  0
   15.3994   -2.2760    3.1053 H   0  0  0  0  0  0  0  0  0  0  0  0
   13.6542   -2.1108    3.3198 H   0  0  0  0  0  0  0  0  0  0  0  0
   15.2776   -2.8990    0.6622 N   0  0  0  0  0  4  0  0  0  0  0  0
   16.2348   -3.0063    1.0030 H   0  0  0  0  0  0  0  0  0  0  0  0
   14.3465   -5.4885   -1.7295 C   0  0  0  0  0  0  0  0  0  0  0  0
   13.4051   -5.0808   -2.0861 H   0  0  0  0  0  0  0  0  0  0  0  0
   14.6533   -6.8288   -1.9682 C   0  0  0  0  0  0  0  0  0  0  0  0
   13.9457   -7.4501   -2.5090 H   0  0  0  0  0  0  0  0  0  0  0  0
  1  2  1  0
  2  3  2  0
  3  4  1  0
  3  5  1  0
  5  6  1  0
  5  7  2  0
  7  8  1  0
  8  9  1  0
  9 10  2  0
 10 11  1  0
 10 12  1  0
 12 13  1  0
 12 14  2  0
 14 15  1  0
 14 16  1  0
 16 17  1  0
 17 18  1  0
 17 19  1  0
 17 20  1  0
 20 21  1  0
 20 22  1  0
 22 23  1  0
 22 24  1  0
 24 25  1  0
 24 26  1  0
 24 27  1  0
 22 28  1  0
 28 29  1  0
 28 30  1  0
 28 31  1  0
 16 32  2  0
 32 33  1  0
  8 34  1  0
 34 35  2  0
 34 36  1  0
 36 37  1  0
 37 38  1  0
 37 39  1  0
 37 40  1  0
 36 41  1  0
 41 42  1  0
 42 43  1  0
 42 44  1  0
 41 45  2  0
 45 46  1  0
  7 47  1  0
 47 48  1  0
 47 49  2  0
 49 50  1  0
 49  2  1  0
 45  8  1  0
 32  9  1  0
M  CHG  1  45   1
M  END
>  <score>  (318) 
5.33153

$$$$

     RDKit          3D

 45 47  0  0  0  0  0  0  0  0999 V2000
   12.8946  -10.3279   -5.0526 H   0  0  0  0  0  0  0  0  0  0  0  0
   13.5285   -9.6294   -4.8041 O   0  0  0  0  0  0  0  0  0  0  0  0
   13.3323   -9.4641   -3.4887 C   0  0  0  0  0  0  0  0  0  0  0  0
   12.6273  -10.1973   -2.8163 O   0  0  0  0  0  0  0  0  0  0  0  0
   14.0616   -8.2740   -2.8980 C   0  0  0  0  0  0  0  0  0  0  0  0
   15.1303   -8.4712   -2.9712 H   0  0  0  0  0  0  0  0  0  0  0  0
   13.8234   -7.4266   -3.5485 H   0  0  0  0  0  0  0  0  0  0  0  0
   13.7701   -7.9222   -1.4359 C   0  0  0  0  0  0  0  0  0  0  0  0
   13.8127   -8.8053   -0.7880 H   0  0  0  0  0  0  0  0  0  0  0  0
   12.7642   -7.4867   -1.3544 H   0  0  0  0  0  0  0  0  0  0  0  0
   14.8132   -6.9139   -1.0095 C   0  0  0  0  0  0  0  0  0  0  0  0
   16.1401   -7.2687   -0.6960 C   0  0  0  0  0  0  0  0  0  0  0  0
   16.4397   -8.3089   -0.6557 H   0  0  0  0  0  0  0  0  0  0  0  0
   17.1063   -6.2798   -0.4403 C   0  0  0  0  0  0  0  0  0  0  0  0
   18.1342   -6.5525   -0.2034 H   0  0  0  0  0  0  0  0  0  0  0  0
   16.7451   -4.9287   -0.4597 C   0  0  0  0  0  0  0  0  0  0  0  0
   17.4981   -4.1673   -0.2557 H   0  0  0  0  0  0  0  0  0  0  0  0
   15.4095   -4.5598   -0.6883 C   0  0  0  0  0  0  0  0  0  0  0  0
   14.9632   -3.1109   -0.5508 C   0  0  0  0  0  0  0  0  0  0  0  0
   15.4715   -2.1759   -1.6420 C   0  0  0  0  0  0  0  0  0  0  0  0
   15.9628   -2.6496   -2.8733 C   0  0  0  0  0  0  0  0  0  0  0  0
   15.9999   -3.7168   -3.0746 H   0  0  0  0  0  0  0  0  0  0  0  0
   16.4067   -1.7501   -3.8532 C   0  0  0  0  0  0  0  0  0  0  0  0
   16.7927   -2.1140   -4.7982 H   0  0  0  0  0  0  0  0  0  0  0  0
   16.3545   -0.3727   -3.6230 C   0  0  0  0  0  0  0  0  0  0  0  0
   16.7109    0.3235   -4.3773 H   0  0  0  0  0  0  0  0  0  0  0  0
   15.8355    0.1081   -2.4200 C   0  0  0  0  0  0  0  0  0  0  0  0
   15.7740    1.1759   -2.2384 H   0  0  0  0  0  0  0  0  0  0  0  0
   15.3922   -0.7868   -1.4425 C   0  0  0  0  0  0  0  0  0  0  0  0
   14.9802   -0.4029   -0.5130 H   0  0  0  0  0  0  0  0  0  0  0  0
   13.4343   -2.9773   -0.4155 C   0  0  0  0  0  0  0  0  0  0  0  0
   12.5928   -3.2576   -1.2685 O   0  0  0  0  0  0  0  0  0  0  0  0
   13.1194   -2.5292    0.8506 N   0  0  0  0  0  0  0  0  0  0  0  0
   11.7768   -2.2652    1.3691 C   0  0  0  0  0  0  0  0  0  0  0  0
   11.5697   -2.8863    2.2481 H   0  0  0  0  0  0  0  0  0  0  0  0
   11.0170   -2.4876    0.6098 H   0  0  0  0  0  0  0  0  0  0  0  0
   11.6747   -1.2109    1.6496 H   0  0  0  0  0  0  0  0  0  0  0  0
   14.3088   -2.3923    1.5348 C   0  0  0  0  0  0  0  0  0  0  0  0
   14.4541   -2.0749    2.8517 N   0  0  0  0  0  0  0  0  0  0  0  0
   13.6297   -2.1022    3.4510 H   0  0  0  0  0  0  0  0  0  0  0  0
   15.3744   -2.2020    3.2676 H   0  0  0  0  0  0  0  0  0  0  0  0
   15.3423   -2.6425    0.7989 N   0  0  0  0  0  4  0  0  0  0  0  0
   16.2855   -2.7386    1.1799 H   0  0  0  0  0  0  0  0  0  0  0  0
   14.4674   -5.5647   -0.9783 C   0  0  0  0  0  0  0  0  0  0  0  0
   13.4364   -5.2980   -1.1808 H   0  0  0  0  0  0  0  0  0  0  0  0
  1  2  1  0
  2  3  1  0
  3  4  2  0
  3  5  1  0
  5  6  1  0
  5  7  1  0
  5  8  1  0
  8  9  1  0
  8 10  1  0
  8 11  1  0
 11 12  2  0
 12 13  1  0
 12 14  1  0
 14 15  1  0
 14 16  2  0
 16 17  1  0
 16 18  1  0
 18 19  1  0
 19 20  1  0
 20 21  2  0
 21 22  1  0
 21 23  1  0
 23 24  1  0
 23 25  2  0
 25 26  1  0
 25 27  1  0
 27 28  1  0
 27 29  2  0
 29 30  1  0
 19 31  1  0
 31 32  2  0
 31 33  1  0
 33 34  1  0
 34 35  1  0
 34 36  1  0
 34 37  1  0
 33 38  1  0
 38 39  1  0
 39 40  1  0
 39 41  1  0
 38 42  2  0
 42 43  1  0
 18 44  2  0
 44 45  1  0
 44 11  1  0
 42 19  1  0
 29 20  1  0
M  CHG  1  42   1
M  END
>  <score>  (319) 
5.32732

$$$$

     RDKit          3D

 45 48  0  0  0  0  0  0  0  0999 V2000
   10.0778   -8.3178   -0.1208 H   0  0  0  0  0  0  0  0  0  0  0  0
   11.0505   -8.5319   -0.5569 C   0  0  0  0  0  0  0  0  0  0  0  0
   11.8230   -9.6158   -0.1592 N   0  0  0  0  0  0  0  0  0  0  0  0
   12.9029   -9.4939   -0.8773 C   0  0  0  0  0  0  0  0  0  0  0  0
   13.7613  -10.1585   -0.8411 H   0  0  0  0  0  0  0  0  0  0  0  0
   12.7888   -8.3878   -1.7005 N   0  0  0  0  0  0  0  0  0  0  0  0
   13.8595   -7.8906   -2.5802 C   0  0  0  0  0  0  0  0  0  0  0  0
   14.4240   -8.7317   -2.9874 H   0  0  0  0  0  0  0  0  0  0  0  0
   13.4613   -7.3404   -3.4259 H   0  0  0  0  0  0  0  0  0  0  0  0
   14.7553   -6.9379   -1.8548 C   0  0  0  0  0  0  0  0  0  0  0  0
   15.9931   -7.3701   -1.3737 C   0  0  0  0  0  0  0  0  0  0  0  0
   16.2860   -8.4062   -1.4980 H   0  0  0  0  0  0  0  0  0  0  0  0
   16.8648   -6.4681   -0.7672 C   0  0  0  0  0  0  0  0  0  0  0  0
   17.8336   -6.8036   -0.4147 H   0  0  0  0  0  0  0  0  0  0  0  0
   16.4804   -5.1366   -0.6054 C   0  0  0  0  0  0  0  0  0  0  0  0
   17.1656   -4.4362   -0.1375 H   0  0  0  0  0  0  0  0  0  0  0  0
   15.2167   -4.6939   -1.0245 C   0  0  0  0  0  0  0  0  0  0  0  0
   14.8112   -3.2500   -0.7627 C   0  0  0  0  0  0  0  0  0  0  0  0
   15.3718   -2.2659   -1.7750 C   0  0  0  0  0  0  0  0  0  0  0  0
   15.9186   -2.6639   -3.0052 C   0  0  0  0  0  0  0  0  0  0  0  0
   15.9680   -3.7189   -3.2524 H   0  0  0  0  0  0  0  0  0  0  0  0
   16.4178   -1.7113   -3.9069 C   0  0  0  0  0  0  0  0  0  0  0  0
   16.8677   -2.0327   -4.8382 H   0  0  0  0  0  0  0  0  0  0  0  0
   16.3668   -0.3497   -3.5959 C   0  0  0  0  0  0  0  0  0  0  0  0
   16.7775    0.3879   -4.2823 H   0  0  0  0  0  0  0  0  0  0  0  0
   15.7989    0.0579   -2.3864 C   0  0  0  0  0  0  0  0  0  0  0  0
   15.7620    1.1077   -2.1160 H   0  0  0  0  0  0  0  0  0  0  0  0
   15.3015   -0.8935   -1.4918 C   0  0  0  0  0  0  0  0  0  0  0  0
   14.8698   -0.5660   -0.5518 H   0  0  0  0  0  0  0  0  0  0  0  0
   13.2925   -3.0189   -0.6306 C   0  0  0  0  0  0  0  0  0  0  0  0
   12.4236   -3.2457   -1.4695 O   0  0  0  0  0  0  0  0  0  0  0  0
   13.0192   -2.5344    0.6338 N   0  0  0  0  0  0  0  0  0  0  0  0
   11.7002   -2.2309    1.1722 C   0  0  0  0  0  0  0  0  0  0  0  0
   11.6140   -1.1755    1.4647 H   0  0  0  0  0  0  0  0  0  0  0  0
   11.5244   -2.8553    2.0521 H   0  0  0  0  0  0  0  0  0  0  0  0
   10.9309   -2.4483    0.4232 H   0  0  0  0  0  0  0  0  0  0  0  0
   14.1953   -2.5814    1.3465 C   0  0  0  0  0  0  0  0  0  0  0  0
   14.3397   -2.3802    2.6822 N   0  0  0  0  0  0  0  0  0  0  0  0
   13.5668   -1.9830    3.2113 H   0  0  0  0  0  0  0  0  0  0  0  0
   15.2933   -2.3514    3.0501 H   0  0  0  0  0  0  0  0  0  0  0  0
   15.2088   -2.8952    0.6146 N   0  0  0  0  0  4  0  0  0  0  0  0
   16.1620   -2.9675    0.9692 H   0  0  0  0  0  0  0  0  0  0  0  0
   14.3626   -5.6013   -1.6757 C   0  0  0  0  0  0  0  0  0  0  0  0
   13.3881   -5.2789   -2.0424 H   0  0  0  0  0  0  0  0  0  0  0  0
   11.5920   -7.7891   -1.4961 N   0  0  0  0  0  0  0  0  0  0  0  0
  1  2  1  0
  2  3  1  0
  3  4  2  0
  4  5  1  0
  4  6  1  0
  6  7  1  0
  7  8  1  0
  7  9  1  0
  7 10  1  0
 10 11  2  0
 11 12  1  0
 11 13  1  0
 13 14  1  0
 13 15  2  0
 15 16  1  0
 15 17  1  0
 17 18  1  0
 18 19  1  0
 19 20  2  0
 20 21  1  0
 20 22  1  0
 22 23  1  0
 22 24  2  0
 24 25  1  0
 24 26  1  0
 26 27  1  0
 26 28  2  0
 28 29  1  0
 18 30  1  0
 30 31  2  0
 30 32  1  0
 32 33  1  0
 33 34  1  0
 33 35  1  0
 33 36  1  0
 32 37  1  0
 37 38  1  0
 38 39  1  0
 38 40  1  0
 37 41  2  0
 41 42  1  0
 17 43  2  0
 43 44  1  0
  6 45  1  0
 45  2  2  0
 43 10  1  0
 41 18  1  0
 28 19  1  0
M  CHG  1  41   1
M  END
>  <score>  (320) 
5.32299

$$$$

     RDKit          3D

 47 49  0  0  0  0  0  0  0  0999 V2000
   16.0963   -8.4060   -1.6713 H   0  0  0  0  0  0  0  0  0  0  0  0
   15.8649   -7.3599   -1.4982 C   0  0  0  0  0  0  0  0  0  0  0  0
   16.7719   -6.5466   -0.8083 C   0  0  0  0  0  0  0  0  0  0  0  0
   17.7101   -6.9516   -0.4420 H   0  0  0  0  0  0  0  0  0  0  0  0
   16.4673   -5.2029   -0.5729 C   0  0  0  0  0  0  0  0  0  0  0  0
   17.1743   -4.5754   -0.0359 H   0  0  0  0  0  0  0  0  0  0  0  0
   15.2445   -4.6679   -1.0053 C   0  0  0  0  0  0  0  0  0  0  0  0
   14.8557   -3.2383   -0.6914 C   0  0  0  0  0  0  0  0  0  0  0  0
   15.3528   -2.2308   -1.7138 C   0  0  0  0  0  0  0  0  0  0  0  0
   15.9843   -2.6213   -2.9077 C   0  0  0  0  0  0  0  0  0  0  0  0
   16.1295   -3.6776   -3.1198 H   0  0  0  0  0  0  0  0  0  0  0  0
   16.4036   -1.6541   -3.8308 C   0  0  0  0  0  0  0  0  0  0  0  0
   16.9228   -1.9558   -4.7355 H   0  0  0  0  0  0  0  0  0  0  0  0
   16.1295   -0.3033   -3.6093 C   0  0  0  0  0  0  0  0  0  0  0  0
   16.4460    0.4279   -4.3529 H   0  0  0  0  0  0  0  0  0  0  0  0
   15.4310    0.0822   -2.4556 C   0  0  0  0  0  0  0  0  0  0  0  0
   14.8909    1.8012   -2.2150 S   0  0  0  0  0  0  0  0  0  0  0  0
   13.6067    1.8635   -1.4990 O   0  0  0  0  0  0  0  0  0  0  0  0
   14.8508    2.4995   -3.5092 O   0  0  0  0  0  0  0  0  0  0  0  0
   16.1846    2.4838   -1.2513 N   0  0  0  0  0  0  0  0  0  0  0  0
   17.4470    2.6067   -1.9870 C   0  0  0  0  0  0  0  0  0  0  0  0
   17.3201    3.3911   -2.7388 H   0  0  0  0  0  0  0  0  0  0  0  0
   18.2548    2.8816   -1.3049 H   0  0  0  0  0  0  0  0  0  0  0  0
   17.7352    1.6763   -2.4907 H   0  0  0  0  0  0  0  0  0  0  0  0
   16.2803    2.0721    0.1614 C   0  0  0  0  0  0  0  0  0  0  0  0
   15.3632    2.2968    0.7077 H   0  0  0  0  0  0  0  0  0  0  0  0
   17.0967    2.6124    0.6612 H   0  0  0  0  0  0  0  0  0  0  0  0
   16.4743    1.0019    0.2587 H   0  0  0  0  0  0  0  0  0  0  0  0
   15.0928   -0.8738   -1.4949 C   0  0  0  0  0  0  0  0  0  0  0  0
   14.5932   -0.5776   -0.5721 H   0  0  0  0  0  0  0  0  0  0  0  0
   13.3336   -3.0908   -0.5072 C   0  0  0  0  0  0  0  0  0  0  0  0
   12.4624   -3.2605   -1.3593 O   0  0  0  0  0  0  0  0  0  0  0  0
   13.0748   -2.6564    0.7763 N   0  0  0  0  0  0  0  0  0  0  0  0
   11.7683   -2.2973    1.3149 C   0  0  0  0  0  0  0  0  0  0  0  0
   10.9789   -2.4763    0.5755 H   0  0  0  0  0  0  0  0  0  0  0  0
   11.5451   -2.8963    2.2045 H   0  0  0  0  0  0  0  0  0  0  0  0
   11.7424   -1.2359    1.5858 H   0  0  0  0  0  0  0  0  0  0  0  0
   14.2845   -2.5568    1.4277 C   0  0  0  0  0  0  0  0  0  0  0  0
   14.4693   -2.1902    2.7270 N   0  0  0  0  0  0  0  0  0  0  0  0
   15.4030   -2.2750    3.1255 H   0  0  0  0  0  0  0  0  0  0  0  0
   13.6578   -2.1083    3.3377 H   0  0  0  0  0  0  0  0  0  0  0  0
   15.2844   -2.8709    0.6722 N   0  0  0  0  0  4  0  0  0  0  0  0
   16.2385   -2.9849    1.0152 H   0  0  0  0  0  0  0  0  0  0  0  0
   14.3584   -5.4834   -1.7263 C   0  0  0  0  0  0  0  0  0  0  0  0
   13.4199   -5.0747   -2.0885 H   0  0  0  0  0  0  0  0  0  0  0  0
   14.6618   -6.8238   -1.9681 C   0  0  0  0  0  0  0  0  0  0  0  0
   13.9533   -7.4411   -2.5118 H   0  0  0  0  0  0  0  0  0  0  0  0
  1  2  1  0
  2  3  2  0
  3  4  1  0
  3  5  1  0
  5  6  1  0
  5  7  2  0
  7  8  1  0
  8  9  1  0
  9 10  2  0
 10 11  1  0
 10 12  1  0
 12 13  1  0
 12 14  2  0
 14 15  1  0
 14 16  1  0
 16 17  1  0
 17 18  2  0
 17 19  2  0
 17 20  1  0
 20 21  1  0
 21 22  1  0
 21 23  1  0
 21 24  1  0
 20 25  1  0
 25 26  1  0
 25 27  1  0
 25 28  1  0
 16 29  2  0
 29 30  1  0
  8 31  1  0
 31 32  2  0
 31 33  1  0
 33 34  1  0
 34 35  1  0
 34 36  1  0
 34 37  1  0
 33 38  1  0
 38 39  1  0
 39 40  1  0
 39 41  1  0
 38 42  2  0
 42 43  1  0
  7 44  1  0
 44 45  1  0
 44 46  2  0
 46 47  1  0
 46  2  1  0
 42  8  1  0
 29  9  1  0
M  CHG  1  42   1
M  END
>  <score>  (321) 
5.31511

$$$$

     RDKit          3D

 50 52  0  0  0  0  0  0  0  0999 V2000
   16.0762   -8.3461   -1.6653 H   0  0  0  0  0  0  0  0  0  0  0  0
   15.8533   -7.2970   -1.4955 C   0  0  0  0  0  0  0  0  0  0  0  0
   16.7642   -6.4855   -0.8117 C   0  0  0  0  0  0  0  0  0  0  0  0
   17.6981   -6.9019   -0.4473 H   0  0  0  0  0  0  0  0  0  0  0  0
   16.4728   -5.1352   -0.5860 C   0  0  0  0  0  0  0  0  0  0  0  0
   17.1907   -4.5190   -0.0510 H   0  0  0  0  0  0  0  0  0  0  0  0
   15.2563   -4.5811   -1.0251 C   0  0  0  0  0  0  0  0  0  0  0  0
   14.8806   -3.1321   -0.7157 C   0  0  0  0  0  0  0  0  0  0  0  0
   15.3547   -2.1183   -1.7573 C   0  0  0  0  0  0  0  0  0  0  0  0
   15.9860   -2.5284   -2.9397 C   0  0  0  0  0  0  0  0  0  0  0  0
   16.1245   -3.5870   -3.1325 H   0  0  0  0  0  0  0  0  0  0  0  0
   16.4606   -1.6003   -3.8716 C   0  0  0  0  0  0  0  0  0  0  0  0
   16.9827   -1.9414   -4.7607 H   0  0  0  0  0  0  0  0  0  0  0  0
   16.2593   -0.2341   -3.6534 C   0  0  0  0  0  0  0  0  0  0  0  0
   16.6270    0.4912   -4.3707 H   0  0  0  0  0  0  0  0  0  0  0  0
   15.5572    0.2171   -2.5307 C   0  0  0  0  0  0  0  0  0  0  0  0
   15.3102    1.5982   -2.3850 N   0  0  0  0  0  0  0  0  0  0  0  0
   14.3223    2.0886   -1.3937 C   0  0  0  0  0  0  0  0  0  0  0  0
   13.7023    1.2711   -1.0141 H   0  0  0  0  0  0  0  0  0  0  0  0
   13.6466    2.8224   -1.8510 H   0  0  0  0  0  0  0  0  0  0  0  0
   15.0981    2.7147   -0.2449 C   0  0  0  0  0  0  0  0  0  0  0  0
   15.7703    1.9686    0.1800 H   0  0  0  0  0  0  0  0  0  0  0  0
   15.6933    3.5498   -0.6198 H   0  0  0  0  0  0  0  0  0  0  0  0
   14.4387    3.0740    0.5505 H   0  0  0  0  0  0  0  0  0  0  0  0
   16.2987    2.5567   -2.9282 C   0  0  0  0  0  0  0  0  0  0  0  0
   15.9895    3.5924   -2.7306 H   0  0  0  0  0  0  0  0  0  0  0  0
   16.3945    2.4327   -4.0179 H   0  0  0  0  0  0  0  0  0  0  0  0
   17.6367    2.3098   -2.2239 C   0  0  0  0  0  0  0  0  0  0  0  0
   18.0479    1.3671   -2.6040 H   0  0  0  0  0  0  0  0  0  0  0  0
   18.3392    3.1271   -2.4080 H   0  0  0  0  0  0  0  0  0  0  0  0
   17.5146    2.2301   -1.1378 H   0  0  0  0  0  0  0  0  0  0  0  0
   15.1219   -0.7319   -1.5864 C   0  0  0  0  0  0  0  0  0  0  0  0
   14.6124   -0.3604   -0.7056 H   0  0  0  0  0  0  0  0  0  0  0  0
   13.3644   -2.9680   -0.5339 C   0  0  0  0  0  0  0  0  0  0  0  0
   12.4890   -3.1717   -1.3719 O   0  0  0  0  0  0  0  0  0  0  0  0
   13.0968   -2.5895    0.7659 N   0  0  0  0  0  0  0  0  0  0  0  0
   11.7791   -2.2842    1.3160 C   0  0  0  0  0  0  0  0  0  0  0  0
   10.9946   -2.4818    0.5761 H   0  0  0  0  0  0  0  0  0  0  0  0
   11.5743   -2.8994    2.1995 H   0  0  0  0  0  0  0  0  0  0  0  0
   11.7199   -1.2274    1.5987 H   0  0  0  0  0  0  0  0  0  0  0  0
   14.3031   -2.5184    1.4273 C   0  0  0  0  0  0  0  0  0  0  0  0
   14.4678   -2.2422    2.7559 N   0  0  0  0  0  0  0  0  0  0  0  0
   15.4074   -2.2467    3.1506 H   0  0  0  0  0  0  0  0  0  0  0  0
   13.6563   -2.0918    3.3499 H   0  0  0  0  0  0  0  0  0  0  0  0
   15.3074   -2.7748    0.6566 N   0  0  0  0  0  4  0  0  0  0  0  0
   16.2560   -2.9241    1.0092 H   0  0  0  0  0  0  0  0  0  0  0  0
   14.3648   -5.4026   -1.7374 C   0  0  0  0  0  0  0  0  0  0  0  0
   13.4270   -4.9959   -2.1045 H   0  0  0  0  0  0  0  0  0  0  0  0
   14.6557   -6.7504   -1.9646 C   0  0  0  0  0  0  0  0  0  0  0  0
   13.9446   -7.3699   -2.5013 H   0  0  0  0  0  0  0  0  0  0  0  0
  1  2  1  0
  2  3  2  0
  3  4  1  0
  3  5  1  0
  5  6  1  0
  5  7  2  0
  7  8  1  0
  8  9  1  0
  9 10  2  0
 10 11  1  0
 10 12  1  0
 12 13  1  0
 12 14  2  0
 14 15  1  0
 14 16  1  0
 16 17  1  0
 17 18  1  0
 18 19  1  0
 18 20  1  0
 18 21  1  0
 21 22  1  0
 21 23  1  0
 21 24  1  0
 17 25  1  0
 25 26  1  0
 25 27  1  0
 25 28  1  0
 28 29  1  0
 28 30  1  0
 28 31  1  0
 16 32  2  0
 32 33  1  0
  8 34  1  0
 34 35  2  0
 34 36  1  0
 36 37  1  0
 37 38  1  0
 37 39  1  0
 37 40  1  0
 36 41  1  0
 41 42  1  0
 42 43  1  0
 42 44  1  0
 41 45  2  0
 45 46  1  0
  7 47  1  0
 47 48  1  0
 47 49  2  0
 49 50  1  0
 49  2  1  0
 45  8  1  0
 32  9  1  0
M  CHG  1  45   1
M  END
>  <score>  (322) 
5.31471

$$$$

     RDKit          3D

 48 51  0  0  0  0  0  0  0  0999 V2000
   14.8029   -9.1761   -2.5409 H   0  0  0  0  0  0  0  0  0  0  0  0
   13.7491   -8.9876   -2.4079 C   0  0  0  0  0  0  0  0  0  0  0  0
   13.3786   -7.7867   -1.8056 C   0  0  0  0  0  0  0  0  0  0  0  0
   14.4349   -6.8389   -1.4032 C   0  0  0  0  0  0  0  0  0  0  0  0
   15.7641   -7.2650   -1.2028 C   0  0  0  0  0  0  0  0  0  0  0  0
   16.0391   -8.3059   -1.3433 H   0  0  0  0  0  0  0  0  0  0  0  0
   16.7541   -6.3657   -0.7995 C   0  0  0  0  0  0  0  0  0  0  0  0
   17.7736   -6.7072   -0.6480 H   0  0  0  0  0  0  0  0  0  0  0  0
   16.4372   -5.0253   -0.5889 C   0  0  0  0  0  0  0  0  0  0  0  0
   17.2076   -4.3354   -0.2501 H   0  0  0  0  0  0  0  0  0  0  0  0
   15.1325   -4.5639   -0.7995 C   0  0  0  0  0  0  0  0  0  0  0  0
   14.8189   -3.0941   -0.5688 C   0  0  0  0  0  0  0  0  0  0  0  0
   15.4311   -2.1615   -1.6057 C   0  0  0  0  0  0  0  0  0  0  0  0
   15.9496   -2.6389   -2.8229 C   0  0  0  0  0  0  0  0  0  0  0  0
   15.9717   -3.7083   -3.0092 H   0  0  0  0  0  0  0  0  0  0  0  0
   16.4350   -1.7511   -3.7917 C   0  0  0  0  0  0  0  0  0  0  0  0
   16.8373   -2.1338   -4.7230 H   0  0  0  0  0  0  0  0  0  0  0  0
   16.4038   -0.3738   -3.5587 C   0  0  0  0  0  0  0  0  0  0  0  0
   16.7675    0.3097   -4.3205 H   0  0  0  0  0  0  0  0  0  0  0  0
   15.9028    0.1159   -2.3495 C   0  0  0  0  0  0  0  0  0  0  0  0
   15.8930    1.1855   -2.1605 H   0  0  0  0  0  0  0  0  0  0  0  0
   15.4147   -0.7726   -1.3843 C   0  0  0  0  0  0  0  0  0  0  0  0
   15.0214   -0.3790   -0.4505 H   0  0  0  0  0  0  0  0  0  0  0  0
   13.3089   -2.8095   -0.4625 C   0  0  0  0  0  0  0  0  0  0  0  0
   12.4593   -2.9966   -1.3275 O   0  0  0  0  0  0  0  0  0  0  0  0
   13.0263   -2.3667    0.8151 N   0  0  0  0  0  0  0  0  0  0  0  0
   11.7057   -2.1416    1.3962 C   0  0  0  0  0  0  0  0  0  0  0  0
   10.9093   -2.3378    0.6707 H   0  0  0  0  0  0  0  0  0  0  0  0
   11.5601   -2.8071    2.2570 H   0  0  0  0  0  0  0  0  0  0  0  0
   11.6059   -1.1025    1.7308 H   0  0  0  0  0  0  0  0  0  0  0  0
   14.2060   -2.3815    1.5217 C   0  0  0  0  0  0  0  0  0  0  0  0
   14.3131   -2.0941    2.8489 N   0  0  0  0  0  0  0  0  0  0  0  0
   15.2104   -2.2554    3.3061 H   0  0  0  0  0  0  0  0  0  0  0  0
   13.4600   -2.1065    3.4011 H   0  0  0  0  0  0  0  0  0  0  0  0
   15.2187   -2.7325    0.8043 N   0  0  0  0  0  4  0  0  0  0  0  0
   16.1388   -2.9385    1.1910 H   0  0  0  0  0  0  0  0  0  0  0  0
   14.1413   -5.4765   -1.2072 C   0  0  0  0  0  0  0  0  0  0  0  0
   13.1326   -5.1077   -1.3800 H   0  0  0  0  0  0  0  0  0  0  0  0
   12.0760   -7.5032   -1.5894 N   0  0  0  0  0  0  0  0  0  0  0  0
   11.1066   -8.3743   -1.9652 C   0  0  0  0  0  0  0  0  0  0  0  0
    9.6182   -8.0772   -1.7353 C   0  0  0  0  0  0  0  0  0  0  0  0
    9.0355   -9.1080   -1.0569 F   0  0  0  0  0  0  0  0  0  0  0  0
    8.9952   -7.9547   -2.9392 F   0  0  0  0  0  0  0  0  0  0  0  0
    9.3946   -6.9223   -1.0458 F   0  0  0  0  0  0  0  0  0  0  0  0
   11.4646   -9.5735   -2.6147 C   0  0  0  0  0  0  0  0  0  0  0  0
   10.7075  -10.2616   -2.9691 H   0  0  0  0  0  0  0  0  0  0  0  0
   12.7961   -9.8986   -2.8305 C   0  0  0  0  0  0  0  0  0  0  0  0
   13.0889  -10.8261   -3.3180 H   0  0  0  0  0  0  0  0  0  0  0  0
  1  2  1  0
  2  3  2  0
  3  4  1  0
  4  5  2  0
  5  6  1  0
  5  7  1  0
  7  8  1  0
  7  9  2  0
  9 10  1  0
  9 11  1  0
 11 12  1  0
 12 13  1  0
 13 14  2  0
 14 15  1  0
 14 16  1  0
 16 17  1  0
 16 18  2  0
 18 19  1  0
 18 20  1  0
 20 21  1  0
 20 22  2  0
 22 23  1  0
 12 24  1  0
 24 25  2  0
 24 26  1  0
 26 27  1  0
 27 28  1  0
 27 29  1  0
 27 30  1  0
 26 31  1  0
 31 32  1  0
 32 33  1  0
 32 34  1  0
 31 35  2  0
 35 36  1  0
 11 37  2  0
 37 38  1  0
  3 39  1  0
 39 40  2  0
 40 41  1  0
 41 42  1  0
 41 43  1  0
 41 44  1  0
 40 45  1  0
 45 46  1  0
 45 47  2  0
 47 48  1  0
 47  2  1  0
 37  4  1  0
 35 12  1  0
 22 13  1  0
M  CHG  1  35   1
M  END
>  <score>  (323) 
5.31315

$$$$

     RDKit          3D

 48 50  0  0  0  0  0  0  0  0999 V2000
   16.1248   -8.4891   -1.6110 H   0  0  0  0  0  0  0  0  0  0  0  0
   15.8536   -7.4447   -1.4705 C   0  0  0  0  0  0  0  0  0  0  0  0
   16.7272   -6.5860   -0.8002 C   0  0  0  0  0  0  0  0  0  0  0  0
   17.6746   -6.9553   -0.4185 H   0  0  0  0  0  0  0  0  0  0  0  0
   16.3875   -5.2421   -0.6098 C   0  0  0  0  0  0  0  0  0  0  0  0
   17.0685   -4.5927   -0.0674 H   0  0  0  0  0  0  0  0  0  0  0  0
   15.1687   -4.7199   -1.0727 C   0  0  0  0  0  0  0  0  0  0  0  0
   14.8120   -3.2530   -0.7849 C   0  0  0  0  0  0  0  0  0  0  0  0
   15.3892   -2.2475   -1.7820 C   0  0  0  0  0  0  0  0  0  0  0  0
   15.9440   -2.6415   -3.0103 C   0  0  0  0  0  0  0  0  0  0  0  0
   16.0050   -3.6940   -3.2644 H   0  0  0  0  0  0  0  0  0  0  0  0
   16.4218   -1.6901   -3.9216 C   0  0  0  0  0  0  0  0  0  0  0  0
   16.8573   -2.0043   -4.8647 H   0  0  0  0  0  0  0  0  0  0  0  0
   16.3385   -0.3255   -3.6283 C   0  0  0  0  0  0  0  0  0  0  0  0
   16.6982    0.4078   -4.3456 H   0  0  0  0  0  0  0  0  0  0  0  0
   15.7780    0.0989   -2.4176 C   0  0  0  0  0  0  0  0  0  0  0  0
   15.6664    1.5755   -2.0923 C   0  0  0  0  0  0  0  0  0  0  0  0
   16.3398    2.1577   -2.7259 H   0  0  0  0  0  0  0  0  0  0  0  0
   15.9862    1.7433   -1.0608 H   0  0  0  0  0  0  0  0  0  0  0  0
   14.2292    2.0917   -2.2621 C   0  0  0  0  0  0  0  0  0  0  0  0
   13.5615    1.4660   -1.6691 H   0  0  0  0  0  0  0  0  0  0  0  0
   13.7806    2.0340   -3.7241 C   0  0  0  0  0  0  0  0  0  0  0  0
   13.7791    1.0030   -4.0814 H   0  0  0  0  0  0  0  0  0  0  0  0
   14.4488    2.6139   -4.3617 H   0  0  0  0  0  0  0  0  0  0  0  0
   12.7711    2.4383   -3.8362 H   0  0  0  0  0  0  0  0  0  0  0  0
   14.1102    3.5296   -1.7471 C   0  0  0  0  0  0  0  0  0  0  0  0
   13.0828    3.8925   -1.8437 H   0  0  0  0  0  0  0  0  0  0  0  0
   14.3896    3.5825   -0.6922 H   0  0  0  0  0  0  0  0  0  0  0  0
   14.7616    4.2037   -2.3075 H   0  0  0  0  0  0  0  0  0  0  0  0
   15.3165   -0.8668   -1.5091 C   0  0  0  0  0  0  0  0  0  0  0  0
   14.8938   -0.5291   -0.5687 H   0  0  0  0  0  0  0  0  0  0  0  0
   13.2974   -3.0214   -0.6073 C   0  0  0  0  0  0  0  0  0  0  0  0
   12.4279   -3.0820   -1.4738 O   0  0  0  0  0  0  0  0  0  0  0  0
   13.0229   -2.6718    0.7005 N   0  0  0  0  0  0  0  0  0  0  0  0
   11.7198   -2.3131    1.2620 C   0  0  0  0  0  0  0  0  0  0  0  0
   11.5023   -2.9173    2.1456 H   0  0  0  0  0  0  0  0  0  0  0  0
   11.6930   -1.2613    1.5585 H   0  0  0  0  0  0  0  0  0  0  0  0
   10.9140   -2.4755    0.5404 H   0  0  0  0  0  0  0  0  0  0  0  0
   14.2231   -2.6305    1.3654 C   0  0  0  0  0  0  0  0  0  0  0  0
   14.3939   -2.3361    2.6880 N   0  0  0  0  0  0  0  0  0  0  0  0
   13.5802   -2.1267    3.2638 H   0  0  0  0  0  0  0  0  0  0  0  0
   15.3276   -2.3563    3.0935 H   0  0  0  0  0  0  0  0  0  0  0  0
   15.2194   -2.9073    0.5927 N   0  0  0  0  0  4  0  0  0  0  0  0
   16.1883   -2.9027    0.9010 H   0  0  0  0  0  0  0  0  0  0  0  0
   14.3011   -5.5936   -1.7678 C   0  0  0  0  0  0  0  0  0  0  0  0
   13.3526   -5.2423   -2.1647 H   0  0  0  0  0  0  0  0  0  0  0  0
   14.6428   -6.9448   -1.9608 C   0  0  0  0  0  0  0  0  0  0  0  0
   13.9731   -7.6187   -2.4885 H   0  0  0  0  0  0  0  0  0  0  0  0
  1  2  1  0
  2  3  2  0
  3  4  1  0
  3  5  1  0
  5  6  1  0
  5  7  2  0
  7  8  1  0
  8  9  1  0
  9 10  2  0
 10 11  1  0
 10 12  1  0
 12 13  1  0
 12 14  2  0
 14 15  1  0
 14 16  1  0
 16 17  1  0
 17 18  1  0
 17 19  1  0
 17 20  1  0
 20 21  1  0
 20 22  1  0
 22 23  1  0
 22 24  1  0
 22 25  1  0
 20 26  1  0
 26 27  1  0
 26 28  1  0
 26 29  1  0
 16 30  2  0
 30 31  1  0
  8 32  1  0
 32 33  2  0
 32 34  1  0
 34 35  1  0
 35 36  1  0
 35 37  1  0
 35 38  1  0
 34 39  1  0
 39 40  1  0
 40 41  1  0
 40 42  1  0
 39 43  2  0
 43 44  1  0
  7 45  1  0
 45 46  1  0
 45 47  2  0
 47 48  1  0
 47  2  1  0
 43  8  1  0
 30  9  1  0
M  CHG  1  43   1
M  END
>  <score>  (324) 
5.3119

$$$$

     RDKit          3D

 47 50  0  0  0  0  0  0  0  0999 V2000
   11.5239   -6.6323   -1.5685 H   0  0  0  0  0  0  0  0  0  0  0  0
   11.8291   -7.6083   -1.9315 C   0  0  0  0  0  0  0  0  0  0  0  0
   10.8493   -8.4427   -2.3040 N   0  0  0  0  0  0  0  0  0  0  0  0
   11.2262   -9.5963   -2.8104 C   0  0  0  0  0  0  0  0  0  0  0  0
   10.1962  -10.3841   -3.1454 N   0  0  0  0  0  0  0  0  0  0  0  0
   10.3885  -11.3701   -3.0573 H   0  0  0  0  0  0  0  0  0  0  0  0
    9.3414  -10.0301   -2.7334 H   0  0  0  0  0  0  0  0  0  0  0  0
   12.5283  -10.0138   -2.9428 C   0  0  0  0  0  0  0  0  0  0  0  0
   12.7051  -10.9808   -3.3815 H   0  0  0  0  0  0  0  0  0  0  0  0
   13.5511   -9.1750   -2.5242 C   0  0  0  0  0  0  0  0  0  0  0  0
   14.5924   -9.4662   -2.5964 H   0  0  0  0  0  0  0  0  0  0  0  0
   13.2001   -7.9223   -2.0197 C   0  0  0  0  0  0  0  0  0  0  0  0
   14.2569   -6.9725   -1.6196 C   0  0  0  0  0  0  0  0  0  0  0  0
   15.5528   -7.4415   -1.3600 C   0  0  0  0  0  0  0  0  0  0  0  0
   15.7569   -8.5030   -1.4410 H   0  0  0  0  0  0  0  0  0  0  0  0
   16.5844   -6.5680   -1.0013 C   0  0  0  0  0  0  0  0  0  0  0  0
   17.5853   -6.9378   -0.8008 H   0  0  0  0  0  0  0  0  0  0  0  0
   16.3296   -5.2043   -0.8774 C   0  0  0  0  0  0  0  0  0  0  0  0
   17.1244   -4.5230   -0.5798 H   0  0  0  0  0  0  0  0  0  0  0  0
   15.0399   -4.7025   -1.0828 C   0  0  0  0  0  0  0  0  0  0  0  0
   14.7759   -3.2263   -0.8059 C   0  0  0  0  0  0  0  0  0  0  0  0
   15.3502   -2.2484   -1.8264 C   0  0  0  0  0  0  0  0  0  0  0  0
   15.9053   -2.6541   -3.0549 C   0  0  0  0  0  0  0  0  0  0  0  0
   15.9310   -3.7074   -3.3152 H   0  0  0  0  0  0  0  0  0  0  0  0
   16.4346   -1.7065   -3.9433 C   0  0  0  0  0  0  0  0  0  0  0  0
   16.8841   -2.0196   -4.8791 H   0  0  0  0  0  0  0  0  0  0  0  0
   16.4064   -0.3473   -3.6203 C   0  0  0  0  0  0  0  0  0  0  0  0
   16.8335    0.3818   -4.3020 H   0  0  0  0  0  0  0  0  0  0  0  0
   15.8270    0.0728   -2.4212 C   0  0  0  0  0  0  0  0  0  0  0  0
   15.8041    1.1295   -2.1675 H   0  0  0  0  0  0  0  0  0  0  0  0
   15.2966   -0.8716   -1.5375 C   0  0  0  0  0  0  0  0  0  0  0  0
   14.8466   -0.5293   -0.6078 H   0  0  0  0  0  0  0  0  0  0  0  0
   13.2887   -2.9398   -0.5660 C   0  0  0  0  0  0  0  0  0  0  0  0
   12.3950   -3.0235   -1.4042 O   0  0  0  0  0  0  0  0  0  0  0  0
   13.0783   -2.5882    0.7548 N   0  0  0  0  0  0  0  0  0  0  0  0
   11.8039   -2.2180    1.3693 C   0  0  0  0  0  0  0  0  0  0  0  0
   11.5672   -1.1694    1.1605 H   0  0  0  0  0  0  0  0  0  0  0  0
   11.8428   -2.3593    2.4572 H   0  0  0  0  0  0  0  0  0  0  0  0
   10.9851   -2.8312    0.9778 H   0  0  0  0  0  0  0  0  0  0  0  0
   14.3057   -2.6115    1.3726 C   0  0  0  0  0  0  0  0  0  0  0  0
   14.5206   -2.3862    2.7005 N   0  0  0  0  0  0  0  0  0  0  0  0
   15.4830   -2.3705    3.0338 H   0  0  0  0  0  0  0  0  0  0  0  0
   13.7772   -1.9967    3.2786 H   0  0  0  0  0  0  0  0  0  0  0  0
   15.2644   -2.9073    0.5556 N   0  0  0  0  0  4  0  0  0  0  0  0
   16.2491   -2.9127    0.8168 H   0  0  0  0  0  0  0  0  0  0  0  0
   14.0129   -5.5948   -1.4776 C   0  0  0  0  0  0  0  0  0  0  0  0
   13.0195   -5.2162   -1.6923 H   0  0  0  0  0  0  0  0  0  0  0  0
  1  2  1  0
  2  3  2  0
  3  4  1  0
  4  5  1  0
  5  6  1  0
  5  7  1  0
  4  8  2  0
  8  9  1  0
  8 10  1  0
 10 11  1  0
 10 12  2  0
 12 13  1  0
 13 14  2  0
 14 15  1  0
 14 16  1  0
 16 17  1  0
 16 18  2  0
 18 19  1  0
 18 20  1  0
 20 21  1  0
 21 22  1  0
 22 23  2  0
 23 24  1  0
 23 25  1  0
 25 26  1  0
 25 27  2  0
 27 28  1  0
 27 29  1  0
 29 30  1  0
 29 31  2  0
 31 32  1  0
 21 33  1  0
 33 34  2  0
 33 35  1  0
 35 36  1  0
 36 37  1  0
 36 38  1  0
 36 39  1  0
 35 40  1  0
 40 41  1  0
 41 42  1  0
 41 43  1  0
 40 44  2  0
 44 45  1  0
 20 46  2  0
 46 47  1  0
 12  2  1  0
 46 13  1  0
 44 21  1  0
 31 22  1  0
M  CHG  1  44   1
M  END
>  <score>  (325) 
5.30819

$$$$

     RDKit          3D

 53 56  0  0  0  0  0  0  0  0999 V2000
   16.1198   -8.4851   -1.6117 H   0  0  0  0  0  0  0  0  0  0  0  0
   15.8533   -7.4391   -1.4735 C   0  0  0  0  0  0  0  0  0  0  0  0
   16.7300   -6.5819   -0.8040 C   0  0  0  0  0  0  0  0  0  0  0  0
   17.6717   -6.9568   -0.4160 H   0  0  0  0  0  0  0  0  0  0  0  0
   16.3940   -5.2373   -0.6120 C   0  0  0  0  0  0  0  0  0  0  0  0
   17.0659   -4.5847   -0.0625 H   0  0  0  0  0  0  0  0  0  0  0  0
   15.1769   -4.7140   -1.0766 C   0  0  0  0  0  0  0  0  0  0  0  0
   14.8204   -3.2497   -0.7825 C   0  0  0  0  0  0  0  0  0  0  0  0
   15.3791   -2.2299   -1.7720 C   0  0  0  0  0  0  0  0  0  0  0  0
   15.9333   -2.6279   -3.0005 C   0  0  0  0  0  0  0  0  0  0  0  0
   15.9990   -3.6810   -3.2522 H   0  0  0  0  0  0  0  0  0  0  0  0
   16.4116   -1.6820   -3.9092 C   0  0  0  0  0  0  0  0  0  0  0  0
   16.8511   -1.9939   -4.8510 H   0  0  0  0  0  0  0  0  0  0  0  0
   16.3274   -0.3242   -3.6044 C   0  0  0  0  0  0  0  0  0  0  0  0
   16.6932    0.4177   -4.3019 H   0  0  0  0  0  0  0  0  0  0  0  0
   15.7730    0.1181   -2.4041 C   0  0  0  0  0  0  0  0  0  0  0  0
   15.7731    1.4802   -2.2060 O   0  0  0  0  0  0  0  0  0  0  0  0
   15.0611    2.0552   -1.0899 C   0  0  0  0  0  0  0  0  0  0  0  0
   15.3357    3.1064   -1.0222 H   0  0  0  0  0  0  0  0  0  0  0  0
   15.3718    1.6013   -0.1474 H   0  0  0  0  0  0  0  0  0  0  0  0
   13.5372    2.0040   -1.2236 C   0  0  0  0  0  0  0  0  0  0  0  0
   13.0691    2.5469   -0.3932 H   0  0  0  0  0  0  0  0  0  0  0  0
   13.2099    0.9658   -1.1529 H   0  0  0  0  0  0  0  0  0  0  0  0
   13.0904    2.6175   -2.5272 C   0  0  0  0  0  0  0  0  0  0  0  0
   12.8799    1.8005   -3.6437 C   0  0  0  0  0  0  0  0  0  0  0  0
   13.0280    0.7296   -3.5525 H   0  0  0  0  0  0  0  0  0  0  0  0
   12.4932    2.3546   -4.8699 C   0  0  0  0  0  0  0  0  0  0  0  0
   12.3402    1.7123   -5.7320 H   0  0  0  0  0  0  0  0  0  0  0  0
   12.3142    3.7380   -4.9868 C   0  0  0  0  0  0  0  0  0  0  0  0
   12.0193    4.1695   -5.9401 H   0  0  0  0  0  0  0  0  0  0  0  0
   12.5215    4.5630   -3.8744 C   0  0  0  0  0  0  0  0  0  0  0  0
   12.3918    5.6379   -3.9622 H   0  0  0  0  0  0  0  0  0  0  0  0
   12.9070    4.0030   -2.6489 C   0  0  0  0  0  0  0  0  0  0  0  0
   13.0734    4.6463   -1.7904 H   0  0  0  0  0  0  0  0  0  0  0  0
   15.2980   -0.8433   -1.4938 C   0  0  0  0  0  0  0  0  0  0  0  0
   14.8888   -0.5046   -0.5474 H   0  0  0  0  0  0  0  0  0  0  0  0
   13.3099   -3.0204   -0.6039 C   0  0  0  0  0  0  0  0  0  0  0  0
   12.4406   -3.0885   -1.4691 O   0  0  0  0  0  0  0  0  0  0  0  0
   13.0279   -2.6747    0.7014 N   0  0  0  0  0  0  0  0  0  0  0  0
   11.7208   -2.3133    1.2614 C   0  0  0  0  0  0  0  0  0  0  0  0
   10.9116   -2.4792    0.5432 H   0  0  0  0  0  0  0  0  0  0  0  0
   11.6935   -1.2605    1.5536 H   0  0  0  0  0  0  0  0  0  0  0  0
   11.5069   -2.9121    2.1493 H   0  0  0  0  0  0  0  0  0  0  0  0
   14.2275   -2.6310    1.3663 C   0  0  0  0  0  0  0  0  0  0  0  0
   14.3970   -2.3272    2.6855 N   0  0  0  0  0  0  0  0  0  0  0  0
   15.3328   -2.3527    3.0909 H   0  0  0  0  0  0  0  0  0  0  0  0
   13.5824   -2.1261    3.2611 H   0  0  0  0  0  0  0  0  0  0  0  0
   15.2224   -2.9124    0.5987 N   0  0  0  0  0  4  0  0  0  0  0  0
   16.1900   -2.9171    0.9138 H   0  0  0  0  0  0  0  0  0  0  0  0
   14.3046   -5.5855   -1.7672 C   0  0  0  0  0  0  0  0  0  0  0  0
   13.3537   -5.2283   -2.1531 H   0  0  0  0  0  0  0  0  0  0  0  0
   14.6429   -6.9368   -1.9622 C   0  0  0  0  0  0  0  0  0  0  0  0
   13.9721   -7.6104   -2.4881 H   0  0  0  0  0  0  0  0  0  0  0  0
  1  2  1  0
  2  3  2  0
  3  4  1  0
  3  5  1  0
  5  6  1  0
  5  7  2  0
  7  8  1  0
  8  9  1  0
  9 10  2  0
 10 11  1  0
 10 12  1  0
 12 13  1  0
 12 14  2  0
 14 15  1  0
 14 16  1  0
 16 17  1  0
 17 18  1  0
 18 19  1  0
 18 20  1  0
 18 21  1  0
 21 22  1  0
 21 23  1  0
 21 24  1  0
 24 25  2  0
 25 26  1  0
 25 27  1  0
 27 28  1  0
 27 29  2  0
 29 30  1  0
 29 31  1  0
 31 32  1  0
 31 33  2  0
 33 34  1  0
 16 35  2  0
 35 36  1  0
  8 37  1  0
 37 38  2  0
 37 39  1  0
 39 40  1  0
 40 41  1  0
 40 42  1  0
 40 43  1  0
 39 44  1  0
 44 45  1  0
 45 46  1  0
 45 47  1  0
 44 48  2  0
 48 49  1  0
  7 50  1  0
 50 51  1  0
 50 52  2  0
 52 53  1  0
 52  2  1  0
 48  8  1  0
 35  9  1  0
 33 24  1  0
M  CHG  1  48   1
M  END
>  <score>  (326) 
5.30767

$$$$

     RDKit          3D

 55 58  0  0  0  0  0  0  0  0999 V2000
   10.9690  -11.1837   -4.4979 H   0  0  0  0  0  0  0  0  0  0  0  0
   10.9569  -11.7812   -3.7180 O   0  0  0  0  0  0  0  0  0  0  0  0
   10.8733  -11.0323   -2.4928 C   0  0  0  0  0  0  0  0  0  0  0  0
    9.8198  -10.8481   -2.2517 H   0  0  0  0  0  0  0  0  0  0  0  0
   11.2822  -11.6211   -1.6626 H   0  0  0  0  0  0  0  0  0  0  0  0
   11.5947   -9.6668   -2.6152 C   0  0  0  0  0  0  0  0  0  0  0  0
   10.9661   -9.0679   -3.2749 H   0  0  0  0  0  0  0  0  0  0  0  0
   13.0184   -9.7225   -3.2426 C   0  0  0  0  0  0  0  0  0  0  0  0
   12.9762   -9.3178   -4.2587 H   0  0  0  0  0  0  0  0  0  0  0  0
   13.3179  -10.7686   -3.3323 H   0  0  0  0  0  0  0  0  0  0  0  0
   14.1272   -8.9475   -2.4816 C   0  0  0  0  0  0  0  0  0  0  0  0
   14.9112   -8.6442   -3.1695 H   0  0  0  0  0  0  0  0  0  0  0  0
   14.5728   -9.5986   -1.7208 H   0  0  0  0  0  0  0  0  0  0  0  0
   13.6893   -7.6845   -1.8779 N   0  0  0  0  0  0  0  0  0  0  0  0
   14.6608   -6.7668   -1.4370 C   0  0  0  0  0  0  0  0  0  0  0  0
   15.9859   -7.1604   -1.1936 C   0  0  0  0  0  0  0  0  0  0  0  0
   16.2675   -8.1899   -1.3746 H   0  0  0  0  0  0  0  0  0  0  0  0
   16.9273   -6.2535   -0.6940 C   0  0  0  0  0  0  0  0  0  0  0  0
   17.9453   -6.5608   -0.4730 H   0  0  0  0  0  0  0  0  0  0  0  0
   16.5502   -4.9334   -0.4563 C   0  0  0  0  0  0  0  0  0  0  0  0
   17.2755   -4.2324   -0.0577 H   0  0  0  0  0  0  0  0  0  0  0  0
   15.2459   -4.4971   -0.7187 C   0  0  0  0  0  0  0  0  0  0  0  0
   14.8806   -3.0339   -0.4875 C   0  0  0  0  0  0  0  0  0  0  0  0
   15.4438   -2.1068   -1.5609 C   0  0  0  0  0  0  0  0  0  0  0  0
   15.9538   -2.6122   -2.7699 C   0  0  0  0  0  0  0  0  0  0  0  0
   15.9842   -3.6860   -2.9302 H   0  0  0  0  0  0  0  0  0  0  0  0
   16.4218   -1.7505   -3.7683 C   0  0  0  0  0  0  0  0  0  0  0  0
   16.8106   -2.1547   -4.6965 H   0  0  0  0  0  0  0  0  0  0  0  0
   16.3880   -0.3677   -3.5743 C   0  0  0  0  0  0  0  0  0  0  0  0
   16.7439    0.2986   -4.3544 H   0  0  0  0  0  0  0  0  0  0  0  0
   15.8991    0.1521   -2.3728 C   0  0  0  0  0  0  0  0  0  0  0  0
   15.8835    1.2261   -2.2129 H   0  0  0  0  0  0  0  0  0  0  0  0
   15.4279   -0.7110   -1.3759 C   0  0  0  0  0  0  0  0  0  0  0  0
   15.0475   -0.2927   -0.4475 H   0  0  0  0  0  0  0  0  0  0  0  0
   13.3636   -2.8198   -0.3095 C   0  0  0  0  0  0  0  0  0  0  0  0
   12.4801   -3.0252   -1.1411 O   0  0  0  0  0  0  0  0  0  0  0  0
   13.1091   -2.3783    0.9728 N   0  0  0  0  0  0  0  0  0  0  0  0
   11.8062   -2.1366    1.5914 C   0  0  0  0  0  0  0  0  0  0  0  0
   11.6947   -2.7326    2.5053 H   0  0  0  0  0  0  0  0  0  0  0  0
   11.7085   -1.0789    1.8501 H   0  0  0  0  0  0  0  0  0  0  0  0
   10.9868   -2.3994    0.9132 H   0  0  0  0  0  0  0  0  0  0  0  0
   14.3231   -2.2748    1.6052 C   0  0  0  0  0  0  0  0  0  0  0  0
   14.4912   -1.9041    2.8972 N   0  0  0  0  0  0  0  0  0  0  0  0
   15.3928   -2.1246    3.3142 H   0  0  0  0  0  0  0  0  0  0  0  0
   13.6619   -1.9172    3.4877 H   0  0  0  0  0  0  0  0  0  0  0  0
   15.3184   -2.6077    0.8569 N   0  0  0  0  0  4  0  0  0  0  0  0
   16.2784   -2.6940    1.1953 H   0  0  0  0  0  0  0  0  0  0  0  0
   14.3115   -5.4306   -1.2089 C   0  0  0  0  0  0  0  0  0  0  0  0
   13.2920   -5.1364   -1.4257 H   0  0  0  0  0  0  0  0  0  0  0  0
   12.3041   -7.5617   -1.3988 C   0  0  0  0  0  0  0  0  0  0  0  0
   12.3102   -7.0698   -0.4214 H   0  0  0  0  0  0  0  0  0  0  0  0
   11.7269   -6.9326   -2.0861 H   0  0  0  0  0  0  0  0  0  0  0  0
   11.6567   -8.9494   -1.2566 C   0  0  0  0  0  0  0  0  0  0  0  0
   10.6572   -8.8287   -0.8344 H   0  0  0  0  0  0  0  0  0  0  0  0
   12.2372   -9.5544   -0.5538 H   0  0  0  0  0  0  0  0  0  0  0  0
  1  2  1  0
  2  3  1  0
  3  4  1  0
  3  5  1  0
  3  6  1  0
  6  7  1  0
  6  8  1  0
  8  9  1  0
  8 10  1  0
  8 11  1  0
 11 12  1  0
 11 13  1  0
 11 14  1  0
 14 15  1  0
 15 16  2  0
 16 17  1  0
 16 18  1  0
 18 19  1  0
 18 20  2  0
 20 21  1  0
 20 22  1  0
 22 23  1  0
 23 24  1  0
 24 25  2  0
 25 26  1  0
 25 27  1  0
 27 28  1  0
 27 29  2  0
 29 30  1  0
 29 31  1  0
 31 32  1  0
 31 33  2  0
 33 34  1  0
 23 35  1  0
 35 36  2  0
 35 37  1  0
 37 38  1  0
 38 39  1  0
 38 40  1  0
 38 41  1  0
 37 42  1  0
 42 43  1  0
 43 44  1  0
 43 45  1  0
 42 46  2  0
 46 47  1  0
 22 48  2  0
 48 49  1  0
 14 50  1  0
 50 51  1  0
 50 52  1  0
 50 53  1  0
 53 54  1  0
 53 55  1  0
 53  6  1  0
 48 15  1  0
 46 23  1  0
 33 24  1  0
M  CHG  1  46   1
M  END
>  <score>  (327) 
5.30167

$$$$

     RDKit          3D

 51 53  0  0  0  0  0  0  0  0999 V2000
   16.1049   -8.4684   -1.6147 H   0  0  0  0  0  0  0  0  0  0  0  0
   15.8587   -7.4185   -1.4819 C   0  0  0  0  0  0  0  0  0  0  0  0
   16.7389   -6.5695   -0.8054 C   0  0  0  0  0  0  0  0  0  0  0  0
   17.6723   -6.9596   -0.4113 H   0  0  0  0  0  0  0  0  0  0  0  0
   16.4050   -5.2242   -0.6086 C   0  0  0  0  0  0  0  0  0  0  0  0
   17.0757   -4.5732   -0.0553 H   0  0  0  0  0  0  0  0  0  0  0  0
   15.1888   -4.7007   -1.0747 C   0  0  0  0  0  0  0  0  0  0  0  0
   14.8240   -3.2445   -0.7654 C   0  0  0  0  0  0  0  0  0  0  0  0
   15.3776   -2.2271   -1.7584 C   0  0  0  0  0  0  0  0  0  0  0  0
   15.9301   -2.6289   -2.9872 C   0  0  0  0  0  0  0  0  0  0  0  0
   15.9869   -3.6861   -3.2283 H   0  0  0  0  0  0  0  0  0  0  0  0
   16.4104   -1.6873   -3.9047 C   0  0  0  0  0  0  0  0  0  0  0  0
   16.8421   -1.9971   -4.8523 H   0  0  0  0  0  0  0  0  0  0  0  0
   16.3334   -0.3279   -3.5981 C   0  0  0  0  0  0  0  0  0  0  0  0
   16.7027    0.4242   -4.2862 H   0  0  0  0  0  0  0  0  0  0  0  0
   15.7895    0.1056   -2.3931 C   0  0  0  0  0  0  0  0  0  0  0  0
   15.7811    1.4614   -2.2028 O   0  0  0  0  0  0  0  0  0  0  0  0
   15.2300    1.9936   -0.9874 C   0  0  0  0  0  0  0  0  0  0  0  0
   15.7872    1.6401   -0.1135 H   0  0  0  0  0  0  0  0  0  0  0  0
   14.1825    1.6903   -0.8761 H   0  0  0  0  0  0  0  0  0  0  0  0
   15.3353    3.5200   -1.0871 C   0  0  0  0  0  0  0  0  0  0  0  0
   14.8183    3.8425   -2.0018 H   0  0  0  0  0  0  0  0  0  0  0  0
   16.3920    3.8085   -1.1644 H   0  0  0  0  0  0  0  0  0  0  0  0
   14.7360    4.2082    0.0683 N   0  0  0  0  0  0  0  0  0  0  0  0
   14.3312    5.5766   -0.2324 C   0  0  0  0  0  0  0  0  0  0  0  0
   13.5529    5.6024   -0.9930 H   0  0  0  0  0  0  0  0  0  0  0  0
   13.9225    5.9485    0.7013 H   0  0  0  0  0  0  0  0  0  0  0  0
   15.1669    6.2002   -0.5770 H   0  0  0  0  0  0  0  0  0  0  0  0
   15.4770    4.1666    1.3406 C   0  0  0  0  0  0  0  0  0  0  0  0
   15.6926    3.1389    1.6419 H   0  0  0  0  0  0  0  0  0  0  0  0
   14.8881    4.6451    2.1310 H   0  0  0  0  0  0  0  0  0  0  0  0
   16.4141    4.7219    1.2418 H   0  0  0  0  0  0  0  0  0  0  0  0
   15.3057   -0.8435   -1.4801 C   0  0  0  0  0  0  0  0  0  0  0  0
   14.8787   -0.4877   -0.5486 H   0  0  0  0  0  0  0  0  0  0  0  0
   13.3058   -3.0345   -0.5942 C   0  0  0  0  0  0  0  0  0  0  0  0
   12.4484   -3.1145   -1.4699 O   0  0  0  0  0  0  0  0  0  0  0  0
   13.0270   -2.6794    0.7103 N   0  0  0  0  0  0  0  0  0  0  0  0
   11.7207   -2.3128    1.2703 C   0  0  0  0  0  0  0  0  0  0  0  0
   11.7093   -1.2537    1.5579 H   0  0  0  0  0  0  0  0  0  0  0  0
   11.5060   -2.9205    2.1585 H   0  0  0  0  0  0  0  0  0  0  0  0
   10.9174   -2.4766    0.5408 H   0  0  0  0  0  0  0  0  0  0  0  0
   14.2354   -2.6260    1.3701 C   0  0  0  0  0  0  0  0  0  0  0  0
   14.4057   -2.3077    2.6795 N   0  0  0  0  0  0  0  0  0  0  0  0
   13.5925   -2.1243    3.2620 H   0  0  0  0  0  0  0  0  0  0  0  0
   15.3434   -2.3398    3.0816 H   0  0  0  0  0  0  0  0  0  0  0  0
   15.2407   -2.9165    0.6153 N   0  0  0  0  0  4  0  0  0  0  0  0
   16.2091   -2.9538    0.9447 H   0  0  0  0  0  0  0  0  0  0  0  0
   14.3152   -5.5647   -1.7673 C   0  0  0  0  0  0  0  0  0  0  0  0
   13.3601   -5.1919   -2.1258 H   0  0  0  0  0  0  0  0  0  0  0  0
   14.6478   -6.9153   -1.9670 C   0  0  0  0  0  0  0  0  0  0  0  0
   13.9633   -7.5806   -2.4866 H   0  0  0  0  0  0  0  0  0  0  0  0
  1  2  1  0
  2  3  2  0
  3  4  1  0
  3  5  1  0
  5  6  1  0
  5  7  2  0
  7  8  1  0
  8  9  1  0
  9 10  2  0
 10 11  1  0
 10 12  1  0
 12 13  1  0
 12 14  2  0
 14 15  1  0
 14 16  1  0
 16 17  1  0
 17 18  1  0
 18 19  1  0
 18 20  1  0
 18 21  1  0
 21 22  1  0
 21 23  1  0
 21 24  1  0
 24 25  1  0
 25 26  1  0
 25 27  1  0
 25 28  1  0
 24 29  1  0
 29 30  1  0
 29 31  1  0
 29 32  1  0
 16 33  2  0
 33 34  1  0
  8 35  1  0
 35 36  2  0
 35 37  1  0
 37 38  1  0
 38 39  1  0
 38 40  1  0
 38 41  1  0
 37 42  1  0
 42 43  1  0
 43 44  1  0
 43 45  1  0
 42 46  2  0
 46 47  1  0
  7 48  1  0
 48 49  1  0
 48 50  2  0
 50 51  1  0
 50  2  1  0
 46  8  1  0
 33  9  1  0
M  CHG  1  46   1
M  END
>  <score>  (328) 
5.30149

$$$$

     RDKit          3D

 49 51  0  0  0  0  0  0  0  0999 V2000
   16.1379   -8.3949   -1.6972 H   0  0  0  0  0  0  0  0  0  0  0  0
   15.8866   -7.3574   -1.5018 C   0  0  0  0  0  0  0  0  0  0  0  0
   16.7809   -6.5429   -0.7945 C   0  0  0  0  0  0  0  0  0  0  0  0
   17.7301   -6.9401   -0.4419 H   0  0  0  0  0  0  0  0  0  0  0  0
   16.4477   -5.2080   -0.5337 C   0  0  0  0  0  0  0  0  0  0  0  0
   17.1386   -4.5813    0.0254 H   0  0  0  0  0  0  0  0  0  0  0  0
   15.2222   -4.6729   -0.9696 C   0  0  0  0  0  0  0  0  0  0  0  0
   14.8299   -3.2316   -0.6470 C   0  0  0  0  0  0  0  0  0  0  0  0
   15.3682   -2.1980   -1.6235 C   0  0  0  0  0  0  0  0  0  0  0  0
   15.9936   -2.5700   -2.8230 C   0  0  0  0  0  0  0  0  0  0  0  0
   16.1484   -3.6206   -3.0496 H   0  0  0  0  0  0  0  0  0  0  0  0
   16.3886   -1.5975   -3.7474 C   0  0  0  0  0  0  0  0  0  0  0  0
   16.8766   -1.8962   -4.6702 H   0  0  0  0  0  0  0  0  0  0  0  0
   16.1348   -0.2433   -3.4922 C   0  0  0  0  0  0  0  0  0  0  0  0
   16.4204    0.5129   -4.2148 H   0  0  0  0  0  0  0  0  0  0  0  0
   15.4960    0.1520   -2.3111 C   0  0  0  0  0  0  0  0  0  0  0  0
   15.1950    1.4749   -2.0756 O   0  0  0  0  0  0  0  0  0  0  0  0
   16.2011    2.2150   -1.3598 C   0  0  0  0  0  0  0  0  0  0  0  0
   16.3626    1.6735    0.0599 C   0  0  0  0  0  0  0  0  0  0  0  0
   15.4696    1.9105    0.6310 H   0  0  0  0  0  0  0  0  0  0  0  0
   16.5070    0.5867    0.0459 H   0  0  0  0  0  0  0  0  0  0  0  0
   17.2024    2.1535    0.5719 H   0  0  0  0  0  0  0  0  0  0  0  0
   17.4939    2.1308   -2.1545 C   0  0  0  0  0  0  0  0  0  0  0  0
   17.3016    2.5625   -3.1375 H   0  0  0  0  0  0  0  0  0  0  0  0
   18.3013    2.6808   -1.6642 H   0  0  0  0  0  0  0  0  0  0  0  0
   17.7959    1.0868   -2.2760 H   0  0  0  0  0  0  0  0  0  0  0  0
   15.8015    3.6914   -1.2551 C   0  0  0  0  0  0  0  0  0  0  0  0
   14.8500    3.7918   -0.7239 H   0  0  0  0  0  0  0  0  0  0  0  0
   15.7016    4.1326   -2.2516 H   0  0  0  0  0  0  0  0  0  0  0  0
   16.5635    4.2541   -0.7032 H   0  0  0  0  0  0  0  0  0  0  0  0
   15.1311   -0.8284   -1.3848 C   0  0  0  0  0  0  0  0  0  0  0  0
   14.6320   -0.5077   -0.4758 H   0  0  0  0  0  0  0  0  0  0  0  0
   13.3018   -3.0333   -0.5353 C   0  0  0  0  0  0  0  0  0  0  0  0
   12.4433   -3.2643   -1.3872 O   0  0  0  0  0  0  0  0  0  0  0  0
   12.9835   -2.5253    0.7070 N   0  0  0  0  0  0  0  0  0  0  0  0
   11.6181   -2.2591    1.1836 C   0  0  0  0  0  0  0  0  0  0  0  0
   11.3544   -2.9294    2.0105 H   0  0  0  0  0  0  0  0  0  0  0  0
   10.9019   -2.4337    0.3663 H   0  0  0  0  0  0  0  0  0  0  0  0
   11.4903   -1.2223    1.5250 H   0  0  0  0  0  0  0  0  0  0  0  0
   14.1669   -2.4884    1.4243 C   0  0  0  0  0  0  0  0  0  0  0  0
   14.3433   -2.1178    2.7186 N   0  0  0  0  0  0  0  0  0  0  0  0
   15.2688   -2.2301    3.1215 H   0  0  0  0  0  0  0  0  0  0  0  0
   13.5192   -2.0006    3.3115 H   0  0  0  0  0  0  0  0  0  0  0  0
   15.1919   -2.8745    0.7388 N   0  0  0  0  0  4  0  0  0  0  0  0
   16.1438   -2.9161    1.1123 H   0  0  0  0  0  0  0  0  0  0  0  0
   14.3461   -5.4986   -1.7001 C   0  0  0  0  0  0  0  0  0  0  0  0
   13.3993   -5.1002   -2.0534 H   0  0  0  0  0  0  0  0  0  0  0  0
   14.6722   -6.8340   -1.9616 C   0  0  0  0  0  0  0  0  0  0  0  0
   13.9768   -7.4588   -2.5179 H   0  0  0  0  0  0  0  0  0  0  0  0
  1  2  1  0
  2  3  2  0
  3  4  1  0
  3  5  1  0
  5  6  1  0
  5  7  2  0
  7  8  1  0
  8  9  1  0
  9 10  2  0
 10 11  1  0
 10 12  1  0
 12 13  1  0
 12 14  2  0
 14 15  1  0
 14 16  1  0
 16 17  1  0
 17 18  1  0
 18 19  1  0
 19 20  1  0
 19 21  1  0
 19 22  1  0
 18 23  1  0
 23 24  1  0
 23 25  1  0
 23 26  1  0
 18 27  1  0
 27 28  1  0
 27 29  1  0
 27 30  1  0
 16 31  2  0
 31 32  1  0
  8 33  1  0
 33 34  2  0
 33 35  1  0
 35 36  1  0
 36 37  1  0
 36 38  1  0
 36 39  1  0
 35 40  1  0
 40 41  1  0
 41 42  1  0
 41 43  1  0
 40 44  2  0
 44 45  1  0
  7 46  1  0
 46 47  1  0
 46 48  2  0
 48 49  1  0
 48  2  1  0
 44  8  1  0
 31  9  1  0
M  CHG  1  44   1
M  END
>  <score>  (329) 
5.2965

$$$$

     RDKit          3D

 53 56  0  0  0  0  0  0  0  0999 V2000
   10.6850  -11.7555    2.9673 H   0  0  0  0  0  0  0  0  0  0  0  0
   11.2463  -11.1917    2.2291 C   0  0  0  0  0  0  0  0  0  0  0  0
   12.6430  -11.2675    2.2188 C   0  0  0  0  0  0  0  0  0  0  0  0
   13.1751  -11.8827    2.9401 H   0  0  0  0  0  0  0  0  0  0  0  0
   13.3656  -10.5560    1.2552 C   0  0  0  0  0  0  0  0  0  0  0  0
   14.4502  -10.6067    1.2344 H   0  0  0  0  0  0  0  0  0  0  0  0
   12.7080   -9.7782    0.2981 C   0  0  0  0  0  0  0  0  0  0  0  0
   13.4881   -9.1630   -0.6408 O   0  0  0  0  0  0  0  0  0  0  0  0
   12.8475   -8.3184   -1.5981 C   0  0  0  0  0  0  0  0  0  0  0  0
   12.1400   -8.8992   -2.2027 H   0  0  0  0  0  0  0  0  0  0  0  0
   12.3054   -7.5097   -1.0994 H   0  0  0  0  0  0  0  0  0  0  0  0
   13.9593   -7.7476   -2.4700 C   0  0  0  0  0  0  0  0  0  0  0  0
   14.5080   -8.5717   -2.9261 H   0  0  0  0  0  0  0  0  0  0  0  0
   13.5257   -7.1576   -3.2821 H   0  0  0  0  0  0  0  0  0  0  0  0
   14.8992   -6.8724   -1.6762 C   0  0  0  0  0  0  0  0  0  0  0  0
   16.1372   -7.3321   -1.1957 C   0  0  0  0  0  0  0  0  0  0  0  0
   16.4138   -8.3776   -1.3061 H   0  0  0  0  0  0  0  0  0  0  0  0
   17.0243   -6.4286   -0.5926 C   0  0  0  0  0  0  0  0  0  0  0  0
   17.9962   -6.7589   -0.2427 H   0  0  0  0  0  0  0  0  0  0  0  0
   16.6595   -5.0899   -0.4280 C   0  0  0  0  0  0  0  0  0  0  0  0
   17.3691   -4.3923    0.0068 H   0  0  0  0  0  0  0  0  0  0  0  0
   15.3928   -4.6472   -0.8256 C   0  0  0  0  0  0  0  0  0  0  0  0
   14.9475   -3.2225   -0.5994 C   0  0  0  0  0  0  0  0  0  0  0  0
   15.4373   -2.2568   -1.6654 C   0  0  0  0  0  0  0  0  0  0  0  0
   15.9388   -2.6935   -2.9061 C   0  0  0  0  0  0  0  0  0  0  0  0
   15.9779   -3.7540   -3.1328 H   0  0  0  0  0  0  0  0  0  0  0  0
   16.4008   -1.7746   -3.8559 C   0  0  0  0  0  0  0  0  0  0  0  0
   16.7984   -2.1210   -4.8055 H   0  0  0  0  0  0  0  0  0  0  0  0
   16.3495   -0.4043   -3.5814 C   0  0  0  0  0  0  0  0  0  0  0  0
   16.7233    0.3114   -4.3079 H   0  0  0  0  0  0  0  0  0  0  0  0
   15.8078    0.0416   -2.3701 C   0  0  0  0  0  0  0  0  0  0  0  0
   15.7483    1.1038   -2.1540 H   0  0  0  0  0  0  0  0  0  0  0  0
   15.3452   -0.8776   -1.4251 C   0  0  0  0  0  0  0  0  0  0  0  0
   14.9160   -0.5203   -0.4906 H   0  0  0  0  0  0  0  0  0  0  0  0
   13.4221   -3.1012   -0.4421 C   0  0  0  0  0  0  0  0  0  0  0  0
   12.5546   -3.3700   -1.2747 O   0  0  0  0  0  0  0  0  0  0  0  0
   13.1316   -2.6223    0.8177 N   0  0  0  0  0  0  0  0  0  0  0  0
   11.8044   -2.2924    1.3378 C   0  0  0  0  0  0  0  0  0  0  0  0
   11.5753   -2.8915    2.2284 H   0  0  0  0  0  0  0  0  0  0  0  0
   11.7528   -1.2293    1.6031 H   0  0  0  0  0  0  0  0  0  0  0  0
   11.0301   -2.4904    0.5874 H   0  0  0  0  0  0  0  0  0  0  0  0
   14.3273   -2.4792    1.4865 C   0  0  0  0  0  0  0  0  0  0  0  0
   14.4973   -2.0957    2.7847 N   0  0  0  0  0  0  0  0  0  0  0  0
   13.6902   -2.1008    3.4063 H   0  0  0  0  0  0  0  0  0  0  0  0
   15.4314   -2.2070    3.1780 H   0  0  0  0  0  0  0  0  0  0  0  0
   15.3419   -2.7929    0.7581 N   0  0  0  0  0  4  0  0  0  0  0  0
   16.2817   -2.9123    1.1386 H   0  0  0  0  0  0  0  0  0  0  0  0
   14.5286   -5.5468   -1.4550 C   0  0  0  0  0  0  0  0  0  0  0  0
   13.5497   -5.2145   -1.7831 H   0  0  0  0  0  0  0  0  0  0  0  0
   11.3085   -9.7015    0.3196 C   0  0  0  0  0  0  0  0  0  0  0  0
   10.7931   -9.1008   -0.4197 H   0  0  0  0  0  0  0  0  0  0  0  0
   10.5781  -10.4084    1.2812 C   0  0  0  0  0  0  0  0  0  0  0  0
    9.4941  -10.3645    1.2822 H   0  0  0  0  0  0  0  0  0  0  0  0
  1  2  1  0
  2  3  2  0
  3  4  1  0
  3  5  1  0
  5  6  1  0
  5  7  2  0
  7  8  1  0
  8  9  1  0
  9 10  1  0
  9 11  1  0
  9 12  1  0
 12 13  1  0
 12 14  1  0
 12 15  1  0
 15 16  2  0
 16 17  1  0
 16 18  1  0
 18 19  1  0
 18 20  2  0
 20 21  1  0
 20 22  1  0
 22 23  1  0
 23 24  1  0
 24 25  2  0
 25 26  1  0
 25 27  1  0
 27 28  1  0
 27 29  2  0
 29 30  1  0
 29 31  1  0
 31 32  1  0
 31 33  2  0
 33 34  1  0
 23 35  1  0
 35 36  2  0
 35 37  1  0
 37 38  1  0
 38 39  1  0
 38 40  1  0
 38 41  1  0
 37 42  1  0
 42 43  1  0
 43 44  1  0
 43 45  1  0
 42 46  2  0
 46 47  1  0
 22 48  2  0
 48 49  1  0
  7 50  1  0
 50 51  1  0
 50 52  2  0
 52 53  1  0
 52  2  1  0
 48 15  1  0
 46 23  1  0
 33 24  1  0
M  CHG  1  46   1
M  END
>  <score>  (330) 
5.29208

$$$$

     RDKit          3D

 44 46  0  0  0  0  0  0  0  0999 V2000
   16.1086   -8.4962   -1.7433 H   0  0  0  0  0  0  0  0  0  0  0  0
   15.8720   -7.4524   -1.5525 C   0  0  0  0  0  0  0  0  0  0  0  0
   16.7787   -6.6354   -0.8697 C   0  0  0  0  0  0  0  0  0  0  0  0
   17.7300   -7.0407   -0.5380 H   0  0  0  0  0  0  0  0  0  0  0  0
   16.4589   -5.2997   -0.6060 C   0  0  0  0  0  0  0  0  0  0  0  0
   17.1730   -4.6701   -0.0829 H   0  0  0  0  0  0  0  0  0  0  0  0
   15.2199   -4.7670   -0.9902 C   0  0  0  0  0  0  0  0  0  0  0  0
   14.8652   -3.3337   -0.6135 C   0  0  0  0  0  0  0  0  0  0  0  0
   15.3480   -2.3210   -1.6352 C   0  0  0  0  0  0  0  0  0  0  0  0
   15.9274   -2.6965   -2.8591 C   0  0  0  0  0  0  0  0  0  0  0  0
   16.0786   -3.7496   -3.0799 H   0  0  0  0  0  0  0  0  0  0  0  0
   16.3214   -1.7239   -3.7853 C   0  0  0  0  0  0  0  0  0  0  0  0
   16.7902   -2.0122   -4.7216 H   0  0  0  0  0  0  0  0  0  0  0  0
   16.1377   -0.3685   -3.4850 C   0  0  0  0  0  0  0  0  0  0  0  0
   16.4777    0.3802   -4.1886 H   0  0  0  0  0  0  0  0  0  0  0  0
   15.5553    0.0195   -2.2723 C   0  0  0  0  0  0  0  0  0  0  0  0
   15.4220    1.3410   -1.8805 N   0  0  0  0  0  0  0  0  0  0  0  0
   15.4560    1.5077   -0.8856 H   0  0  0  0  0  0  0  0  0  0  0  0
   16.3600    2.4654   -2.7173 S   0  0  0  0  0  0  0  0  0  0  0  0
   16.1778    2.2776   -4.1586 O   0  0  0  0  0  0  0  0  0  0  0  0
   17.7416    2.3456   -2.2527 O   0  0  0  0  0  0  0  0  0  0  0  0
   15.6587    4.0066   -2.1723 C   0  0  0  0  0  0  0  0  0  0  0  0
   15.9986    4.8014   -2.8333 H   0  0  0  0  0  0  0  0  0  0  0  0
   14.5772    3.9271   -2.2140 H   0  0  0  0  0  0  0  0  0  0  0  0
   15.9782    4.1968   -1.1489 H   0  0  0  0  0  0  0  0  0  0  0  0
   15.1508   -0.9533   -1.3754 C   0  0  0  0  0  0  0  0  0  0  0  0
   14.6779   -0.6204   -0.4595 H   0  0  0  0  0  0  0  0  0  0  0  0
   13.3630   -3.1254   -0.3787 C   0  0  0  0  0  0  0  0  0  0  0  0
   12.4787   -3.2680   -1.2215 O   0  0  0  0  0  0  0  0  0  0  0  0
   13.1436   -2.7108    0.9160 N   0  0  0  0  0  0  0  0  0  0  0  0
   11.8779   -2.3064    1.5227 C   0  0  0  0  0  0  0  0  0  0  0  0
   11.0208   -2.8124    1.0531 H   0  0  0  0  0  0  0  0  0  0  0  0
   11.7450   -1.2222    1.4186 H   0  0  0  0  0  0  0  0  0  0  0  0
   11.8999   -2.5615    2.5898 H   0  0  0  0  0  0  0  0  0  0  0  0
   14.3587   -2.6946    1.5509 C   0  0  0  0  0  0  0  0  0  0  0  0
   14.4989   -2.4182    2.8793 N   0  0  0  0  0  0  0  0  0  0  0  0
   13.6821   -2.0780    3.3773 H   0  0  0  0  0  0  0  0  0  0  0  0
   15.4269   -2.1964    3.2307 H   0  0  0  0  0  0  0  0  0  0  0  0
   15.3292   -2.9995    0.7543 N   0  0  0  0  0  4  0  0  0  0  0  0
   16.2804   -3.1722    1.0780 H   0  0  0  0  0  0  0  0  0  0  0  0
   14.3408   -5.5795   -1.7348 C   0  0  0  0  0  0  0  0  0  0  0  0
   13.3992   -5.1815   -2.1024 H   0  0  0  0  0  0  0  0  0  0  0  0
   14.6633   -6.9163   -2.0082 C   0  0  0  0  0  0  0  0  0  0  0  0
   13.9741   -7.5443   -2.5664 H   0  0  0  0  0  0  0  0  0  0  0  0
  1  2  1  0
  2  3  2  0
  3  4  1  0
  3  5  1  0
  5  6  1  0
  5  7  2  0
  7  8  1  0
  8  9  1  0
  9 10  2  0
 10 11  1  0
 10 12  1  0
 12 13  1  0
 12 14  2  0
 14 15  1  0
 14 16  1  0
 16 17  1  0
 17 18  1  0
 17 19  1  0
 19 20  2  0
 19 21  2  0
 19 22  1  0
 22 23  1  0
 22 24  1  0
 22 25  1  0
 16 26  2  0
 26 27  1  0
  8 28  1  0
 28 29  2  0
 28 30  1  0
 30 31  1  0
 31 32  1  0
 31 33  1  0
 31 34  1  0
 30 35  1  0
 35 36  1  0
 36 37  1  0
 36 38  1  0
 35 39  2  0
 39 40  1  0
  7 41  1  0
 41 42  1  0
 41 43  2  0
 43 44  1  0
 43  2  1  0
 39  8  1  0
 26  9  1  0
M  CHG  1  39   1
M  END
>  <score>  (331) 
5.28558

$$$$

     RDKit          3D

 49 51  0  0  0  0  0  0  0  0999 V2000
   16.1271   -8.4908   -1.6108 H   0  0  0  0  0  0  0  0  0  0  0  0
   15.8544   -7.4471   -1.4688 C   0  0  0  0  0  0  0  0  0  0  0  0
   16.7263   -6.5878   -0.7978 C   0  0  0  0  0  0  0  0  0  0  0  0
   17.6765   -6.9550   -0.4201 H   0  0  0  0  0  0  0  0  0  0  0  0
   16.3828   -5.2450   -0.6071 C   0  0  0  0  0  0  0  0  0  0  0  0
   17.0709   -4.5981   -0.0713 H   0  0  0  0  0  0  0  0  0  0  0  0
   15.1634   -4.7218   -1.0719 C   0  0  0  0  0  0  0  0  0  0  0  0
   14.8067   -3.2508   -0.7880 C   0  0  0  0  0  0  0  0  0  0  0  0
   15.3880   -2.2429   -1.7841 C   0  0  0  0  0  0  0  0  0  0  0  0
   15.9465   -2.6410   -3.0107 C   0  0  0  0  0  0  0  0  0  0  0  0
   16.0084   -3.6958   -3.2706 H   0  0  0  0  0  0  0  0  0  0  0  0
   16.4219   -1.6866   -3.9178 C   0  0  0  0  0  0  0  0  0  0  0  0
   16.8576   -2.0034   -4.8612 H   0  0  0  0  0  0  0  0  0  0  0  0
   16.3439   -0.3233   -3.6203 C   0  0  0  0  0  0  0  0  0  0  0  0
   16.7088    0.3912   -4.3572 H   0  0  0  0  0  0  0  0  0  0  0  0
   15.8075    0.1148   -2.3914 C   0  0  0  0  0  0  0  0  0  0  0  0
   15.7241    1.5649   -2.0746 C   0  0  0  0  0  0  0  0  0  0  0  0
   15.7094    2.3911   -2.9747 O   0  0  0  0  0  0  0  0  0  0  0  0
   15.6064    2.0468   -0.7812 N   0  0  0  0  0  0  0  0  0  0  0  0
   15.8344    1.4015   -0.0396 H   0  0  0  0  0  0  0  0  0  0  0  0
   15.3754    3.4444   -0.4353 C   0  0  0  0  0  0  0  0  0  0  0  0
   14.8191    3.9357   -1.2377 H   0  0  0  0  0  0  0  0  0  0  0  0
   16.7073    4.1507   -0.2585 C   0  0  0  0  0  0  0  0  0  0  0  0
   17.2766    3.7050    0.5579 H   0  0  0  0  0  0  0  0  0  0  0  0
   17.2990    4.0929   -1.1750 H   0  0  0  0  0  0  0  0  0  0  0  0
   16.5332    5.1988   -0.0214 H   0  0  0  0  0  0  0  0  0  0  0  0
   14.5427    3.5484    0.8428 C   0  0  0  0  0  0  0  0  0  0  0  0
   13.5869    3.0356    0.7181 H   0  0  0  0  0  0  0  0  0  0  0  0
   14.3343    4.5936    1.0801 H   0  0  0  0  0  0  0  0  0  0  0  0
   15.0690    3.1096    1.6929 H   0  0  0  0  0  0  0  0  0  0  0  0
   15.3231   -0.8631   -1.4989 C   0  0  0  0  0  0  0  0  0  0  0  0
   14.8760   -0.5486   -0.5604 H   0  0  0  0  0  0  0  0  0  0  0  0
   13.2907   -3.0220   -0.6089 C   0  0  0  0  0  0  0  0  0  0  0  0
   12.4210   -3.0786   -1.4790 O   0  0  0  0  0  0  0  0  0  0  0  0
   13.0195   -2.6691    0.6983 N   0  0  0  0  0  0  0  0  0  0  0  0
   11.7185   -2.3125    1.2628 C   0  0  0  0  0  0  0  0  0  0  0  0
   11.5009   -2.9204    2.1459 H   0  0  0  0  0  0  0  0  0  0  0  0
   11.6927   -1.2591    1.5590 H   0  0  0  0  0  0  0  0  0  0  0  0
   10.9150   -2.4764    0.5374 H   0  0  0  0  0  0  0  0  0  0  0  0
   14.2245   -2.6311    1.3650 C   0  0  0  0  0  0  0  0  0  0  0  0
   14.3906   -2.3385    2.6904 N   0  0  0  0  0  0  0  0  0  0  0  0
   15.3257   -2.3590    3.0963 H   0  0  0  0  0  0  0  0  0  0  0  0
   13.5795   -2.1272    3.2671 H   0  0  0  0  0  0  0  0  0  0  0  0
   15.2181   -2.9046    0.5908 N   0  0  0  0  0  4  0  0  0  0  0  0
   16.1915   -2.8963    0.8974 H   0  0  0  0  0  0  0  0  0  0  0  0
   14.2991   -5.5987   -1.7689 C   0  0  0  0  0  0  0  0  0  0  0  0
   13.3521   -5.2496   -2.1713 H   0  0  0  0  0  0  0  0  0  0  0  0
   14.6429   -6.9499   -1.9598 C   0  0  0  0  0  0  0  0  0  0  0  0
   13.9730   -7.6230   -2.4891 H   0  0  0  0  0  0  0  0  0  0  0  0
  1  2  1  0
  2  3  2  0
  3  4  1  0
  3  5  1  0
  5  6  1  0
  5  7  2  0
  7  8  1  0
  8  9  1  0
  9 10  2  0
 10 11  1  0
 10 12  1  0
 12 13  1  0
 12 14  2  0
 14 15  1  0
 14 16  1  0
 16 17  1  0
 17 18  2  0
 17 19  1  0
 19 20  1  0
 19 21  1  0
 21 22  1  0
 21 23  1  0
 23 24  1  0
 23 25  1  0
 23 26  1  0
 21 27  1  0
 27 28  1  0
 27 29  1  0
 27 30  1  0
 16 31  2  0
 31 32  1  0
  8 33  1  0
 33 34  2  0
 33 35  1  0
 35 36  1  0
 36 37  1  0
 36 38  1  0
 36 39  1  0
 35 40  1  0
 40 41  1  0
 41 42  1  0
 41 43  1  0
 40 44  2  0
 44 45  1  0
  7 46  1  0
 46 47  1  0
 46 48  2  0
 48 49  1  0
 48  2  1  0
 44  8  1  0
 31  9  1  0
M  CHG  1  44   1
M  END
>  <score>  (332) 
5.28558

$$$$

     RDKit          3D

 46 48  0  0  0  0  0  0  0  0999 V2000
   16.1098   -8.4752   -1.6135 H   0  0  0  0  0  0  0  0  0  0  0  0
   15.8566   -7.4260   -1.4786 C   0  0  0  0  0  0  0  0  0  0  0  0
   16.7358   -6.5728   -0.8071 C   0  0  0  0  0  0  0  0  0  0  0  0
   17.6704   -6.9596   -0.4124 H   0  0  0  0  0  0  0  0  0  0  0  0
   16.3996   -5.2279   -0.6105 C   0  0  0  0  0  0  0  0  0  0  0  0
   17.0696   -4.5753   -0.0575 H   0  0  0  0  0  0  0  0  0  0  0  0
   15.1855   -4.7034   -1.0802 C   0  0  0  0  0  0  0  0  0  0  0  0
   14.8255   -3.2418   -0.7748 C   0  0  0  0  0  0  0  0  0  0  0  0
   15.3818   -2.2153   -1.7586 C   0  0  0  0  0  0  0  0  0  0  0  0
   15.9321   -2.6188   -2.9847 C   0  0  0  0  0  0  0  0  0  0  0  0
   15.9905   -3.6741   -3.2335 H   0  0  0  0  0  0  0  0  0  0  0  0
   16.4126   -1.6777   -3.8969 C   0  0  0  0  0  0  0  0  0  0  0  0
   16.8397   -1.9877   -4.8446 H   0  0  0  0  0  0  0  0  0  0  0  0
   16.3363   -0.3187   -3.5923 C   0  0  0  0  0  0  0  0  0  0  0  0
   16.6975    0.4286   -4.2880 H   0  0  0  0  0  0  0  0  0  0  0  0
   15.7926    0.1278   -2.3898 C   0  0  0  0  0  0  0  0  0  0  0  0
   15.7634    1.4949   -2.2182 O   0  0  0  0  0  0  0  0  0  0  0  0
   15.3041    2.0549   -0.9792 C   0  0  0  0  0  0  0  0  0  0  0  0
   14.3948    1.5423   -0.6565 H   0  0  0  0  0  0  0  0  0  0  0  0
   16.3611    1.9408    0.1126 C   0  0  0  0  0  0  0  0  0  0  0  0
   17.2896    2.4217   -0.2159 H   0  0  0  0  0  0  0  0  0  0  0  0
   16.5425    0.8860    0.3463 H   0  0  0  0  0  0  0  0  0  0  0  0
   16.0248    2.4494    1.0221 H   0  0  0  0  0  0  0  0  0  0  0  0
   15.0226    3.5449   -1.2104 C   0  0  0  0  0  0  0  0  0  0  0  0
   15.9347    4.0554   -1.5451 H   0  0  0  0  0  0  0  0  0  0  0  0
   14.2447    3.6704   -1.9714 H   0  0  0  0  0  0  0  0  0  0  0  0
   14.6861    4.0220   -0.2830 H   0  0  0  0  0  0  0  0  0  0  0  0
   15.3118   -0.8279   -1.4752 C   0  0  0  0  0  0  0  0  0  0  0  0
   14.8779   -0.4830   -0.5422 H   0  0  0  0  0  0  0  0  0  0  0  0
   13.3106   -3.0269   -0.5982 C   0  0  0  0  0  0  0  0  0  0  0  0
   12.4485   -3.1062   -1.4689 O   0  0  0  0  0  0  0  0  0  0  0  0
   13.0268   -2.6783    0.7075 N   0  0  0  0  0  0  0  0  0  0  0  0
   11.7210   -2.3133    1.2667 C   0  0  0  0  0  0  0  0  0  0  0  0
   11.5066   -2.9208    2.1552 H   0  0  0  0  0  0  0  0  0  0  0  0
   11.7046   -1.2549    1.5585 H   0  0  0  0  0  0  0  0  0  0  0  0
   10.9125   -2.4760    0.5384 H   0  0  0  0  0  0  0  0  0  0  0  0
   14.2353   -2.6279    1.3690 C   0  0  0  0  0  0  0  0  0  0  0  0
   14.4015   -2.3133    2.6815 N   0  0  0  0  0  0  0  0  0  0  0  0
   15.3410   -2.3445    3.0857 H   0  0  0  0  0  0  0  0  0  0  0  0
   13.5871   -2.1254    3.2613 H   0  0  0  0  0  0  0  0  0  0  0  0
   15.2334   -2.9155    0.6058 N   0  0  0  0  0  4  0  0  0  0  0  0
   16.2027   -2.9396    0.9324 H   0  0  0  0  0  0  0  0  0  0  0  0
   14.3118   -5.5718   -1.7685 C   0  0  0  0  0  0  0  0  0  0  0  0
   13.3574   -5.2042   -2.1343 H   0  0  0  0  0  0  0  0  0  0  0  0
   14.6455   -6.9238   -1.9644 C   0  0  0  0  0  0  0  0  0  0  0  0
   13.9671   -7.5925   -2.4873 H   0  0  0  0  0  0  0  0  0  0  0  0
  1  2  1  0
  2  3  2  0
  3  4  1  0
  3  5  1  0
  5  6  1  0
  5  7  2  0
  7  8  1  0
  8  9  1  0
  9 10  2  0
 10 11  1  0
 10 12  1  0
 12 13  1  0
 12 14  2  0
 14 15  1  0
 14 16  1  0
 16 17  1  0
 17 18  1  0
 18 19  1  0
 18 20  1  0
 20 21  1  0
 20 22  1  0
 20 23  1  0
 18 24  1  0
 24 25  1  0
 24 26  1  0
 24 27  1  0
 16 28  2  0
 28 29  1  0
  8 30  1  0
 30 31  2  0
 30 32  1  0
 32 33  1  0
 33 34  1  0
 33 35  1  0
 33 36  1  0
 32 37  1  0
 37 38  1  0
 38 39  1  0
 38 40  1  0
 37 41  2  0
 41 42  1  0
  7 43  1  0
 43 44  1  0
 43 45  2  0
 45 46  1  0
 45  2  1  0
 41  8  1  0
 28  9  1  0
M  CHG  1  41   1
M  END
>  <score>  (333) 
5.28228

$$$$

     RDKit          3D

 55 58  0  0  0  0  0  0  0  0999 V2000
   16.0674   -8.4041   -1.7340 H   0  0  0  0  0  0  0  0  0  0  0  0
   15.8613   -7.3534   -1.5503 C   0  0  0  0  0  0  0  0  0  0  0  0
   16.7870   -6.5638   -0.8622 C   0  0  0  0  0  0  0  0  0  0  0  0
   17.7259   -6.9891   -0.5268 H   0  0  0  0  0  0  0  0  0  0  0  0
   16.5060   -5.2206   -0.5968 C   0  0  0  0  0  0  0  0  0  0  0  0
   17.2344   -4.6141   -0.0631 H   0  0  0  0  0  0  0  0  0  0  0  0
   15.2875   -4.6515   -1.0038 C   0  0  0  0  0  0  0  0  0  0  0  0
   14.9651   -3.1970   -0.6895 C   0  0  0  0  0  0  0  0  0  0  0  0
   15.5132   -2.2431   -1.7416 C   0  0  0  0  0  0  0  0  0  0  0  0
   15.9501   -2.6956   -3.0010 C   0  0  0  0  0  0  0  0  0  0  0  0
   15.9534   -3.7587   -3.2182 H   0  0  0  0  0  0  0  0  0  0  0  0
   16.3660   -1.7948   -3.9889 C   0  0  0  0  0  0  0  0  0  0  0  0
   16.6925   -2.1493   -4.9598 H   0  0  0  0  0  0  0  0  0  0  0  0
   16.3613   -0.4259   -3.7227 C   0  0  0  0  0  0  0  0  0  0  0  0
   16.6772    0.2956   -4.4678 H   0  0  0  0  0  0  0  0  0  0  0  0
   15.9696    0.0394   -2.4713 C   0  0  0  0  0  0  0  0  0  0  0  0
   15.9975    1.4052   -2.2076 N   0  0  0  0  0  0  0  0  0  0  0  0
   15.3004    2.3029   -3.1526 C   0  0  0  0  0  0  0  0  0  0  0  0
   15.8202    2.3130   -4.1145 H   0  0  0  0  0  0  0  0  0  0  0  0
   14.2775    1.9432   -3.3130 H   0  0  0  0  0  0  0  0  0  0  0  0
   15.2126    3.7226   -2.5767 C   0  0  0  0  0  0  0  0  0  0  0  0
   16.2245    4.1095   -2.4189 H   0  0  0  0  0  0  0  0  0  0  0  0
   14.7164    4.3609   -3.3114 H   0  0  0  0  0  0  0  0  0  0  0  0
   14.5000    3.6796   -1.2894 N   0  0  0  0  0  0  0  0  0  0  0  0
   13.2823    4.3370   -1.1111 C   0  0  0  0  0  0  0  0  0  0  0  0
   12.5633    4.0890   -0.1519 O   0  0  0  0  0  0  0  0  0  0  0  0
   12.7691    5.3567   -2.1044 C   0  0  0  0  0  0  0  0  0  0  0  0
   13.3673    5.3526   -3.0152 H   0  0  0  0  0  0  0  0  0  0  0  0
   11.7483    5.0798   -2.3624 H   0  0  0  0  0  0  0  0  0  0  0  0
   12.7810    6.3632   -1.6691 H   0  0  0  0  0  0  0  0  0  0  0  0
   14.8809    2.5973   -0.3655 C   0  0  0  0  0  0  0  0  0  0  0  0
   15.0190    2.9781    0.6538 H   0  0  0  0  0  0  0  0  0  0  0  0
   14.0704    1.8651   -0.3696 H   0  0  0  0  0  0  0  0  0  0  0  0
   16.1630    1.8783   -0.8150 C   0  0  0  0  0  0  0  0  0  0  0  0
   17.0029    2.5790   -0.7701 H   0  0  0  0  0  0  0  0  0  0  0  0
   16.3867    1.0446   -0.1400 H   0  0  0  0  0  0  0  0  0  0  0  0
   15.5277   -0.8606   -1.4996 C   0  0  0  0  0  0  0  0  0  0  0  0
   15.1810   -0.4565   -0.5541 H   0  0  0  0  0  0  0  0  0  0  0  0
   13.4602   -2.9375   -0.4816 C   0  0  0  0  0  0  0  0  0  0  0  0
   12.5628   -3.0735   -1.3091 O   0  0  0  0  0  0  0  0  0  0  0  0
   13.2210   -2.5559    0.8225 N   0  0  0  0  0  0  0  0  0  0  0  0
   11.9269   -2.2640    1.4440 C   0  0  0  0  0  0  0  0  0  0  0  0
   11.1217   -2.8178    0.9427 H   0  0  0  0  0  0  0  0  0  0  0  0
   11.7003   -1.1925    1.3844 H   0  0  0  0  0  0  0  0  0  0  0  0
   11.9438   -2.5508    2.5040 H   0  0  0  0  0  0  0  0  0  0  0  0
   14.4275   -2.5970    1.4693 C   0  0  0  0  0  0  0  0  0  0  0  0
   14.5721   -2.3781    2.8036 N   0  0  0  0  0  0  0  0  0  0  0  0
   13.7664   -2.0331    3.3285 H   0  0  0  0  0  0  0  0  0  0  0  0
   15.5070   -2.1631    3.1377 H   0  0  0  0  0  0  0  0  0  0  0  0
   15.4173   -2.8693    0.6783 N   0  0  0  0  0  4  0  0  0  0  0  0
   16.3630   -3.0698    1.0060 H   0  0  0  0  0  0  0  0  0  0  0  0
   14.3749   -5.4434   -1.7206 C   0  0  0  0  0  0  0  0  0  0  0  0
   13.4407   -5.0052   -2.0649 H   0  0  0  0  0  0  0  0  0  0  0  0
   14.6598   -6.7873   -1.9884 C   0  0  0  0  0  0  0  0  0  0  0  0
   13.9380   -7.3857   -2.5328 H   0  0  0  0  0  0  0  0  0  0  0  0
  1  2  1  0
  2  3  2  0
  3  4  1  0
  3  5  1  0
  5  6  1  0
  5  7  2  0
  7  8  1  0
  8  9  1  0
  9 10  2  0
 10 11  1  0
 10 12  1  0
 12 13  1  0
 12 14  2  0
 14 15  1  0
 14 16  1  0
 16 17  1  0
 17 18  1  0
 18 19  1  0
 18 20  1  0
 18 21  1  0
 21 22  1  0
 21 23  1  0
 21 24  1  0
 24 25  1  0
 25 26  2  0
 25 27  1  0
 27 28  1  0
 27 29  1  0
 27 30  1  0
 24 31  1  0
 31 32  1  0
 31 33  1  0
 31 34  1  0
 34 35  1  0
 34 36  1  0
 16 37  2  0
 37 38  1  0
  8 39  1  0
 39 40  2  0
 39 41  1  0
 41 42  1  0
 42 43  1  0
 42 44  1  0
 42 45  1  0
 41 46  1  0
 46 47  1  0
 47 48  1  0
 47 49  1  0
 46 50  2  0
 50 51  1  0
  7 52  1  0
 52 53  1  0
 52 54  2  0
 54 55  1  0
 54  2  1  0
 50  8  1  0
 37  9  1  0
 34 17  1  0
M  CHG  1  50   1
M  END
>  <score>  (334) 
5.28106

$$$$

     RDKit          3D

 48 51  0  0  0  0  0  0  0  0999 V2000
    9.4545  -10.8048   -3.4601 H   0  0  0  0  0  0  0  0  0  0  0  0
   10.2643  -10.6507   -2.7481 C   0  0  0  0  0  0  0  0  0  0  0  0
   11.6864   -9.6876   -3.1135 S   0  0  0  0  0  0  0  0  0  0  0  0
   12.3435   -9.9432   -1.5104 C   0  0  0  0  0  0  0  0  0  0  0  0
   13.6040   -9.3137   -0.9991 C   0  0  0  0  0  0  0  0  0  0  0  0
   14.4505   -9.9475   -1.2723 H   0  0  0  0  0  0  0  0  0  0  0  0
   13.5781   -9.2465    0.0934 H   0  0  0  0  0  0  0  0  0  0  0  0
   13.6827   -7.9746   -1.6002 N   0  0  0  0  0  0  0  0  0  0  0  0
   12.7816   -7.5762   -1.8533 H   0  0  0  0  0  0  0  0  0  0  0  0
   14.6624   -7.0501   -1.2605 C   0  0  0  0  0  0  0  0  0  0  0  0
   15.9718   -7.4403   -0.9833 C   0  0  0  0  0  0  0  0  0  0  0  0
   16.2183   -8.4972   -1.0198 H   0  0  0  0  0  0  0  0  0  0  0  0
   16.9446   -6.4719   -0.6983 C   0  0  0  0  0  0  0  0  0  0  0  0
   17.9727   -6.7571   -0.4993 H   0  0  0  0  0  0  0  0  0  0  0  0
   16.5860   -5.1184   -0.6541 C   0  0  0  0  0  0  0  0  0  0  0  0
   17.3353   -4.3732   -0.4044 H   0  0  0  0  0  0  0  0  0  0  0  0
   15.2684   -4.7044   -0.8834 C   0  0  0  0  0  0  0  0  0  0  0  0
   14.8905   -3.2342   -0.6728 C   0  0  0  0  0  0  0  0  0  0  0  0
   15.4318   -2.2449   -1.7067 C   0  0  0  0  0  0  0  0  0  0  0  0
   15.9584   -2.6609   -2.9414 C   0  0  0  0  0  0  0  0  0  0  0  0
   16.0110   -3.7178   -3.1770 H   0  0  0  0  0  0  0  0  0  0  0  0
   16.4170   -1.7261   -3.8820 C   0  0  0  0  0  0  0  0  0  0  0  0
   16.8227   -2.0577   -4.8319 H   0  0  0  0  0  0  0  0  0  0  0  0
   16.3532   -0.3565   -3.6102 C   0  0  0  0  0  0  0  0  0  0  0  0
   16.7122    0.3654   -4.3407 H   0  0  0  0  0  0  0  0  0  0  0  0
   15.8200    0.0795   -2.3945 C   0  0  0  0  0  0  0  0  0  0  0  0
   15.7602    1.1445   -2.1800 H   0  0  0  0  0  0  0  0  0  0  0  0
   15.3613   -0.8571   -1.4569 C   0  0  0  0  0  0  0  0  0  0  0  0
   14.9454   -0.4943   -0.5204 H   0  0  0  0  0  0  0  0  0  0  0  0
   13.3750   -3.0356   -0.5032 C   0  0  0  0  0  0  0  0  0  0  0  0
   12.5054   -3.2214   -1.3512 O   0  0  0  0  0  0  0  0  0  0  0  0
   13.1067   -2.6072    0.7842 N   0  0  0  0  0  0  0  0  0  0  0  0
   11.7919   -2.2843    1.3395 C   0  0  0  0  0  0  0  0  0  0  0  0
   11.0019   -2.4797    0.6040 H   0  0  0  0  0  0  0  0  0  0  0  0
   11.7410   -1.2250    1.6211 H   0  0  0  0  0  0  0  0  0  0  0  0
   11.5885   -2.8949    2.2282 H   0  0  0  0  0  0  0  0  0  0  0  0
   14.3123   -2.5105    1.4418 C   0  0  0  0  0  0  0  0  0  0  0  0
   14.4802   -2.1383    2.7460 N   0  0  0  0  0  0  0  0  0  0  0  0
   15.4004   -2.2675    3.1626 H   0  0  0  0  0  0  0  0  0  0  0  0
   13.6597   -2.0997    3.3495 H   0  0  0  0  0  0  0  0  0  0  0  0
   15.3114   -2.8317    0.6874 N   0  0  0  0  0  4  0  0  0  0  0  0
   16.2763   -2.8861    1.0179 H   0  0  0  0  0  0  0  0  0  0  0  0
   14.3170   -5.6924   -1.2256 C   0  0  0  0  0  0  0  0  0  0  0  0
   13.2909   -5.4251   -1.4474 H   0  0  0  0  0  0  0  0  0  0  0  0
   11.5379  -10.7688   -0.7733 C   0  0  0  0  0  0  0  0  0  0  0  0
   11.7571  -11.0529    0.2488 H   0  0  0  0  0  0  0  0  0  0  0  0
   10.3280  -11.1645   -1.4754 C   0  0  0  0  0  0  0  0  0  0  0  0
    9.5547  -11.7708   -1.0154 H   0  0  0  0  0  0  0  0  0  0  0  0
  1  2  1  0
  2  3  1  0
  3  4  1  0
  4  5  1  0
  5  6  1  0
  5  7  1  0
  5  8  1  0
  8  9  1  0
  8 10  1  0
 10 11  2  0
 11 12  1  0
 11 13  1  0
 13 14  1  0
 13 15  2  0
 15 16  1  0
 15 17  1  0
 17 18  1  0
 18 19  1  0
 19 20  2  0
 20 21  1  0
 20 22  1  0
 22 23  1  0
 22 24  2  0
 24 25  1  0
 24 26  1  0
 26 27  1  0
 26 28  2  0
 28 29  1  0
 18 30  1  0
 30 31  2  0
 30 32  1  0
 32 33  1  0
 33 34  1  0
 33 35  1  0
 33 36  1  0
 32 37  1  0
 37 38  1  0
 38 39  1  0
 38 40  1  0
 37 41  2  0
 41 42  1  0
 17 43  2  0
 43 44  1  0
  4 45  2  0
 45 46  1  0
 45 47  1  0
 47 48  1  0
 47  2  2  0
 43 10  1  0
 41 18  1  0
 28 19  1  0
M  CHG  1  41   1
M  END
>  <score>  (335) 
5.2768

$$$$

     RDKit          3D

 48 51  0  0  0  0  0  0  0  0999 V2000
   14.5575   -9.3991   -2.5967 H   0  0  0  0  0  0  0  0  0  0  0  0
   13.5199   -9.1154   -2.4498 C   0  0  0  0  0  0  0  0  0  0  0  0
   12.5785  -10.0258   -2.7462 N   0  0  0  0  0  0  0  0  0  0  0  0
   11.2659   -9.7171   -2.6110 C   0  0  0  0  0  0  0  0  0  0  0  0
   10.1823  -10.7432   -2.9555 C   0  0  0  0  0  0  0  0  0  0  0  0
    9.2964  -10.2327   -3.8518 F   0  0  0  0  0  0  0  0  0  0  0  0
   10.7067  -11.8814   -3.4893 F   0  0  0  0  0  0  0  0  0  0  0  0
    9.4853  -11.0648   -1.8316 F   0  0  0  0  0  0  0  0  0  0  0  0
   10.8914   -8.4487   -2.1238 C   0  0  0  0  0  0  0  0  0  0  0  0
    9.8466   -8.1882   -1.9808 H   0  0  0  0  0  0  0  0  0  0  0  0
   11.8636   -7.4987   -1.8177 C   0  0  0  0  0  0  0  0  0  0  0  0
   11.6005   -6.5127   -1.4429 H   0  0  0  0  0  0  0  0  0  0  0  0
   13.2087   -7.8316   -1.9839 C   0  0  0  0  0  0  0  0  0  0  0  0
   14.2829   -6.9011   -1.6112 C   0  0  0  0  0  0  0  0  0  0  0  0
   15.5557   -7.4246   -1.3506 C   0  0  0  0  0  0  0  0  0  0  0  0
   15.7148   -8.4935   -1.4715 H   0  0  0  0  0  0  0  0  0  0  0  0
   16.5846   -6.6005   -0.8946 C   0  0  0  0  0  0  0  0  0  0  0  0
   17.5571   -7.0365   -0.6808 H   0  0  0  0  0  0  0  0  0  0  0  0
   16.3572   -5.2314   -0.7028 C   0  0  0  0  0  0  0  0  0  0  0  0
   17.1717   -4.6076   -0.3406 H   0  0  0  0  0  0  0  0  0  0  0  0
   15.0914   -4.6739   -0.9539 C   0  0  0  0  0  0  0  0  0  0  0  0
   14.8080   -3.1970   -0.6798 C   0  0  0  0  0  0  0  0  0  0  0  0
   15.3896   -2.2323   -1.7069 C   0  0  0  0  0  0  0  0  0  0  0  0
   15.9280   -2.6685   -2.9300 C   0  0  0  0  0  0  0  0  0  0  0  0
   15.9622   -3.7305   -3.1534 H   0  0  0  0  0  0  0  0  0  0  0  0
   16.4143   -1.7458   -3.8676 C   0  0  0  0  0  0  0  0  0  0  0  0
   16.8296   -2.0907   -4.8092 H   0  0  0  0  0  0  0  0  0  0  0  0
   16.3633   -0.3746   -3.5986 C   0  0  0  0  0  0  0  0  0  0  0  0
   16.7402    0.3383   -4.3270 H   0  0  0  0  0  0  0  0  0  0  0  0
   15.8243    0.0747   -2.3898 C   0  0  0  0  0  0  0  0  0  0  0  0
   15.7793    1.1385   -2.1741 H   0  0  0  0  0  0  0  0  0  0  0  0
   15.3390   -0.8480   -1.4567 C   0  0  0  0  0  0  0  0  0  0  0  0
   14.9142   -0.4844   -0.5250 H   0  0  0  0  0  0  0  0  0  0  0  0
   13.3028   -2.9197   -0.4924 C   0  0  0  0  0  0  0  0  0  0  0  0
   12.4099   -3.0480   -1.3293 O   0  0  0  0  0  0  0  0  0  0  0  0
   13.0601   -2.5302    0.8078 N   0  0  0  0  0  0  0  0  0  0  0  0
   11.7522   -2.2416    1.3978 C   0  0  0  0  0  0  0  0  0  0  0  0
   10.9457   -2.4398    0.6821 H   0  0  0  0  0  0  0  0  0  0  0  0
   11.5739   -2.8630    2.2821 H   0  0  0  0  0  0  0  0  0  0  0  0
   11.6878   -1.1901    1.6932 H   0  0  0  0  0  0  0  0  0  0  0  0
   14.2766   -2.5276    1.4543 C   0  0  0  0  0  0  0  0  0  0  0  0
   14.4650   -2.2552    2.7762 N   0  0  0  0  0  0  0  0  0  0  0  0
   15.4136   -2.2317    3.1463 H   0  0  0  0  0  0  0  0  0  0  0  0
   13.6713   -2.0074    3.3604 H   0  0  0  0  0  0  0  0  0  0  0  0
   15.2590   -2.8516    0.6837 N   0  0  0  0  0  4  0  0  0  0  0  0
   16.2166   -2.9917    1.0157 H   0  0  0  0  0  0  0  0  0  0  0  0
   14.0680   -5.5245   -1.4196 C   0  0  0  0  0  0  0  0  0  0  0  0
   13.0874   -5.0963   -1.6039 H   0  0  0  0  0  0  0  0  0  0  0  0
  1  2  1  0
  2  3  2  0
  3  4  1  0
  4  5  1  0
  5  6  1  0
  5  7  1  0
  5  8  1  0
  4  9  2  0
  9 10  1  0
  9 11  1  0
 11 12  1  0
 11 13  2  0
 13 14  1  0
 14 15  2  0
 15 16  1  0
 15 17  1  0
 17 18  1  0
 17 19  2  0
 19 20  1  0
 19 21  1  0
 21 22  1  0
 22 23  1  0
 23 24  2  0
 24 25  1  0
 24 26  1  0
 26 27  1  0
 26 28  2  0
 28 29  1  0
 28 30  1  0
 30 31  1  0
 30 32  2  0
 32 33  1  0
 22 34  1  0
 34 35  2  0
 34 36  1  0
 36 37  1  0
 37 38  1  0
 37 39  1  0
 37 40  1  0
 36 41  1  0
 41 42  1  0
 42 43  1  0
 42 44  1  0
 41 45  2  0
 45 46  1  0
 21 47  2  0
 47 48  1  0
 13  2  1  0
 47 14  1  0
 45 22  1  0
 32 23  1  0
M  CHG  1  45   1
M  END
>  <score>  (336) 
5.27408

$$$$

     RDKit          3D

 50 53  0  0  0  0  0  0  0  0999 V2000
   14.3155   -9.6179   -1.8626 H   0  0  0  0  0  0  0  0  0  0  0  0
   14.0249   -9.0747   -2.6124 O   0  0  0  0  0  0  0  0  0  0  0  0
   13.5154   -7.8338   -2.1134 C   0  0  1  0  0  0  0  0  0  0  0  0
   13.1261   -7.2392   -2.9357 H   0  0  0  0  0  0  0  0  0  0  0  0
   12.3927   -8.1720   -1.1693 C   0  0  0  0  0  0  0  0  0  0  0  0
   12.6271   -8.3705    0.1990 C   0  0  0  0  0  0  0  0  0  0  0  0
   13.6247   -8.2542    0.6103 H   0  0  0  0  0  0  0  0  0  0  0  0
   11.5781   -8.7171    1.0504 C   0  0  0  0  0  0  0  0  0  0  0  0
   11.7555   -8.8102    2.1159 H   0  0  0  0  0  0  0  0  0  0  0  0
   10.2996   -8.9334    0.5325 C   0  0  0  0  0  0  0  0  0  0  0  0
    9.4962   -9.2510    1.1856 H   0  0  0  0  0  0  0  0  0  0  0  0
   10.0528   -8.7405   -0.8266 C   0  0  0  0  0  0  0  0  0  0  0  0
    9.0646   -8.9169   -1.2384 H   0  0  0  0  0  0  0  0  0  0  0  0
   11.0866   -8.3246   -1.6621 C   0  0  0  0  0  0  0  0  0  0  0  0
   10.8642   -8.1488   -2.7061 H   0  0  0  0  0  0  0  0  0  0  0  0
   14.5823   -6.9620   -1.4954 C   0  0  0  0  0  0  0  0  0  0  0  0
   15.8481   -7.4491   -1.1515 C   0  0  0  0  0  0  0  0  0  0  0  0
   16.0546   -8.5092   -1.2660 H   0  0  0  0  0  0  0  0  0  0  0  0
   16.8356   -6.5736   -0.6809 C   0  0  0  0  0  0  0  0  0  0  0  0
   17.8205   -6.9572   -0.4279 H   0  0  0  0  0  0  0  0  0  0  0  0
   16.5521   -5.2078   -0.5304 C   0  0  0  0  0  0  0  0  0  0  0  0
   17.3111   -4.5249   -0.1590 H   0  0  0  0  0  0  0  0  0  0  0  0
   15.2742   -4.7087   -0.8145 C   0  0  0  0  0  0  0  0  0  0  0  0
   14.9195   -3.2453   -0.5755 C   0  0  0  0  0  0  0  0  0  0  0  0
   15.4510   -2.2851   -1.6324 C   0  0  0  0  0  0  0  0  0  0  0  0
   15.9543   -2.7251   -2.8688 C   0  0  0  0  0  0  0  0  0  0  0  0
   15.9945   -3.7886   -3.0832 H   0  0  0  0  0  0  0  0  0  0  0  0
   16.4007   -1.8024   -3.8280 C   0  0  0  0  0  0  0  0  0  0  0  0
   16.7964   -2.1395   -4.7787 H   0  0  0  0  0  0  0  0  0  0  0  0
   16.3424   -0.4302   -3.5719 C   0  0  0  0  0  0  0  0  0  0  0  0
   16.6971    0.2860   -4.3093 H   0  0  0  0  0  0  0  0  0  0  0  0
   15.8218    0.0173   -2.3578 C   0  0  0  0  0  0  0  0  0  0  0  0
   15.7618    1.0800   -2.1499 H   0  0  0  0  0  0  0  0  0  0  0  0
   15.3775   -0.9015   -1.4031 C   0  0  0  0  0  0  0  0  0  0  0  0
   14.9676   -0.5395   -0.4654 H   0  0  0  0  0  0  0  0  0  0  0  0
   13.4039   -3.0352   -0.4044 C   0  0  0  0  0  0  0  0  0  0  0  0
   12.5247   -3.2715   -1.2305 O   0  0  0  0  0  0  0  0  0  0  0  0
   13.1374   -2.5570    0.8592 N   0  0  0  0  0  0  0  0  0  0  0  0
   11.8116   -2.2527    1.3968 C   0  0  0  0  0  0  0  0  0  0  0  0
   11.6070   -2.8616    2.2841 H   0  0  0  0  0  0  0  0  0  0  0  0
   11.7366   -1.1942    1.6685 H   0  0  0  0  0  0  0  0  0  0  0  0
   11.0361   -2.4670    0.6508 H   0  0  0  0  0  0  0  0  0  0  0  0
   14.3441   -2.4716    1.5135 C   0  0  0  0  0  0  0  0  0  0  0  0
   14.5167   -2.0748    2.8033 N   0  0  0  0  0  0  0  0  0  0  0  0
   13.6970   -2.0555    3.4056 H   0  0  0  0  0  0  0  0  0  0  0  0
   15.4372   -2.2101    3.2143 H   0  0  0  0  0  0  0  0  0  0  0  0
   15.3433   -2.8349    0.7784 N   0  0  0  0  0  4  0  0  0  0  0  0
   16.3051   -2.9007    1.1090 H   0  0  0  0  0  0  0  0  0  0  0  0
   14.3072   -5.6003   -1.3024 C   0  0  0  0  0  0  0  0  0  0  0  0
   13.3130   -5.2278   -1.5222 H   0  0  0  0  0  0  0  0  0  0  0  0
  1  2  1  0
  2  3  1  0
  3  4  1  6
  3  5  1  0
  5  6  2  0
  6  7  1  0
  6  8  1  0
  8  9  1  0
  8 10  2  0
 10 11  1  0
 10 12  1  0
 12 13  1  0
 12 14  2  0
 14 15  1  0
  3 16  1  0
 16 17  2  0
 17 18  1  0
 17 19  1  0
 19 20  1  0
 19 21  2  0
 21 22  1  0
 21 23  1  0
 23 24  1  0
 24 25  1  0
 25 26  2  0
 26 27  1  0
 26 28  1  0
 28 29  1  0
 28 30  2  0
 30 31  1  0
 30 32  1  0
 32 33  1  0
 32 34  2  0
 34 35  1  0
 24 36  1  0
 36 37  2  0
 36 38  1  0
 38 39  1  0
 39 40  1  0
 39 41  1  0
 39 42  1  0
 38 43  1  0
 43 44  1  0
 44 45  1  0
 44 46  1  0
 43 47  2  0
 47 48  1  0
 23 49  2  0
 49 50  1  0
 14  5  1  0
 49 16  1  0
 47 24  1  0
 34 25  1  0
M  CHG  1  47   1
M  END
>  <score>  (337) 
5.27352

$$$$

     RDKit          3D

 52 55  0  0  0  0  0  0  0  0999 V2000
    9.1150  -11.5863   -0.0964 H   0  0  0  0  0  0  0  0  0  0  0  0
    9.9541  -11.2486   -0.6988 C   0  0  0  0  0  0  0  0  0  0  0  0
    9.7201  -10.5670   -1.8944 C   0  0  0  0  0  0  0  0  0  0  0  0
    8.7054  -10.3664   -2.2233 H   0  0  0  0  0  0  0  0  0  0  0  0
   10.7967  -10.1364   -2.6708 C   0  0  0  0  0  0  0  0  0  0  0  0
   10.6112   -9.6134   -3.6003 H   0  0  0  0  0  0  0  0  0  0  0  0
   12.1167  -10.3804   -2.2710 C   0  0  0  0  0  0  0  0  0  0  0  0
   13.2428   -9.9227   -3.1671 C   0  0  0  0  0  0  0  0  0  0  0  0
   13.7313  -10.7882   -3.6294 H   0  0  0  0  0  0  0  0  0  0  0  0
   12.8298   -9.3151   -3.9770 H   0  0  0  0  0  0  0  0  0  0  0  0
   14.2043   -9.1396   -2.4490 O   0  0  0  0  0  0  0  0  0  0  0  0
   13.7355   -7.9311   -2.0329 C   0  0  0  0  0  0  0  0  0  0  0  0
   12.5569   -7.5818   -2.0814 O   0  0  0  0  0  0  0  0  0  0  0  0
   14.7211   -6.9705   -1.5074 C   0  0  0  0  0  0  0  0  0  0  0  0
   16.0385   -7.3637   -1.2021 C   0  0  0  0  0  0  0  0  0  0  0  0
   16.3492   -8.4005   -1.2988 H   0  0  0  0  0  0  0  0  0  0  0  0
   16.9838   -6.4286   -0.7630 C   0  0  0  0  0  0  0  0  0  0  0  0
   17.9908   -6.7486   -0.5113 H   0  0  0  0  0  0  0  0  0  0  0  0
   16.6360   -5.0808   -0.6324 C   0  0  0  0  0  0  0  0  0  0  0  0
   17.3714   -4.3571   -0.2766 H   0  0  0  0  0  0  0  0  0  0  0  0
   15.3167   -4.6756   -0.8882 C   0  0  0  0  0  0  0  0  0  0  0  0
   14.9016   -3.2349   -0.6627 C   0  0  0  0  0  0  0  0  0  0  0  0
   15.4301   -2.2603   -1.7065 C   0  0  0  0  0  0  0  0  0  0  0  0
   15.9493   -2.6792   -2.9445 C   0  0  0  0  0  0  0  0  0  0  0  0
   16.0009   -3.7397   -3.1733 H   0  0  0  0  0  0  0  0  0  0  0  0
   16.4119   -1.7419   -3.8783 C   0  0  0  0  0  0  0  0  0  0  0  0
   16.8269   -2.0750   -4.8246 H   0  0  0  0  0  0  0  0  0  0  0  0
   16.3498   -0.3748   -3.5896 C   0  0  0  0  0  0  0  0  0  0  0  0
   16.7142    0.3491   -4.3128 H   0  0  0  0  0  0  0  0  0  0  0  0
   15.8111    0.0538   -2.3728 C   0  0  0  0  0  0  0  0  0  0  0  0
   15.7581    1.1132   -2.1405 H   0  0  0  0  0  0  0  0  0  0  0  0
   15.3481   -0.8827   -1.4454 C   0  0  0  0  0  0  0  0  0  0  0  0
   14.9314   -0.5402   -0.5017 H   0  0  0  0  0  0  0  0  0  0  0  0
   13.3781   -3.0491   -0.4946 C   0  0  0  0  0  0  0  0  0  0  0  0
   12.4990   -3.2661   -1.3237 O   0  0  0  0  0  0  0  0  0  0  0  0
   13.1049   -2.6156    0.7877 N   0  0  0  0  0  0  0  0  0  0  0  0
   11.7884   -2.2882    1.3375 C   0  0  0  0  0  0  0  0  0  0  0  0
   11.7344   -1.2286    1.6125 H   0  0  0  0  0  0  0  0  0  0  0  0
   11.5745   -2.8919    2.2275 H   0  0  0  0  0  0  0  0  0  0  0  0
   10.9990   -2.4820    0.6028 H   0  0  0  0  0  0  0  0  0  0  0  0
   14.3117   -2.5189    1.4446 C   0  0  0  0  0  0  0  0  0  0  0  0
   14.4962   -2.1392    2.7389 N   0  0  0  0  0  0  0  0  0  0  0  0
   15.4265   -2.2488    3.1395 H   0  0  0  0  0  0  0  0  0  0  0  0
   13.6883   -2.0969    3.3569 H   0  0  0  0  0  0  0  0  0  0  0  0
   15.3127   -2.8448    0.6973 N   0  0  0  0  0  4  0  0  0  0  0  0
   16.2713   -2.9242    1.0409 H   0  0  0  0  0  0  0  0  0  0  0  0
   14.3718   -5.6240   -1.3106 C   0  0  0  0  0  0  0  0  0  0  0  0
   13.3519   -5.2934   -1.4958 H   0  0  0  0  0  0  0  0  0  0  0  0
   12.3499  -11.0429   -1.0540 C   0  0  0  0  0  0  0  0  0  0  0  0
   13.3674  -11.2295   -0.7163 H   0  0  0  0  0  0  0  0  0  0  0  0
   11.2682  -11.4715   -0.2723 C   0  0  0  0  0  0  0  0  0  0  0  0
   11.4452  -11.9748    0.6723 H   0  0  0  0  0  0  0  0  0  0  0  0
  1  2  1  0
  2  3  2  0
  3  4  1  0
  3  5  1  0
  5  6  1  0
  5  7  2  0
  7  8  1  0
  8  9  1  0
  8 10  1  0
  8 11  1  0
 11 12  1  0
 12 13  2  0
 12 14  1  0
 14 15  2  0
 15 16  1  0
 15 17  1  0
 17 18  1  0
 17 19  2  0
 19 20  1  0
 19 21  1  0
 21 22  1  0
 22 23  1  0
 23 24  2  0
 24 25  1  0
 24 26  1  0
 26 27  1  0
 26 28  2  0
 28 29  1  0
 28 30  1  0
 30 31  1  0
 30 32  2  0
 32 33  1  0
 22 34  1  0
 34 35  2  0
 34 36  1  0
 36 37  1  0
 37 38  1  0
 37 39  1  0
 37 40  1  0
 36 41  1  0
 41 42  1  0
 42 43  1  0
 42 44  1  0
 41 45  2  0
 45 46  1  0
 21 47  2  0
 47 48  1  0
  7 49  1  0
 49 50  1  0
 49 51  2  0
 51 52  1  0
 51  2  1  0
 47 14  1  0
 45 22  1  0
 32 23  1  0
M  CHG  1  45   1
M  END
>  <score>  (338) 
5.2732

$$$$

     RDKit          3D

 49 52  0  0  0  0  0  0  0  0999 V2000
    8.5825  -11.0255   -3.6998 H   0  0  0  0  0  0  0  0  0  0  0  0
    9.0392  -10.2478   -3.3452 O   0  0  0  0  0  0  0  0  0  0  0  0
   10.3061  -10.6735   -3.1365 C   0  0  0  0  0  0  0  0  0  0  0  0
   10.6565  -11.8244   -3.3578 O   0  0  0  0  0  0  0  0  0  0  0  0
   11.3060   -9.7001   -2.6409 C   0  0  0  0  0  0  0  0  0  0  0  0
   10.9203   -8.4917   -2.0241 C   0  0  0  0  0  0  0  0  0  0  0  0
    9.8654   -8.2662   -1.8651 H   0  0  0  0  0  0  0  0  0  0  0  0
   11.8783   -7.5407   -1.6417 C   0  0  0  0  0  0  0  0  0  0  0  0
   11.5395   -6.6047   -1.2135 H   0  0  0  0  0  0  0  0  0  0  0  0
   13.2556   -7.7984   -1.8021 C   0  0  0  0  0  0  0  0  0  0  0  0
   14.3182   -6.8387   -1.4071 C   0  0  0  0  0  0  0  0  0  0  0  0
   15.6293   -7.3078   -1.1941 C   0  0  0  0  0  0  0  0  0  0  0  0
   15.8486   -8.3644   -1.2997 H   0  0  0  0  0  0  0  0  0  0  0  0
   16.6647   -6.4437   -0.8260 C   0  0  0  0  0  0  0  0  0  0  0  0
   17.6698   -6.8265   -0.6637 H   0  0  0  0  0  0  0  0  0  0  0  0
   16.4050   -5.0819   -0.6477 C   0  0  0  0  0  0  0  0  0  0  0  0
   17.2152   -4.4165   -0.3566 H   0  0  0  0  0  0  0  0  0  0  0  0
   15.1096   -4.5656   -0.8292 C   0  0  0  0  0  0  0  0  0  0  0  0
   14.8421   -3.0682   -0.5814 C   0  0  0  0  0  0  0  0  0  0  0  0
   15.4295   -2.1272   -1.6378 C   0  0  0  0  0  0  0  0  0  0  0  0
   15.9416   -2.6060   -2.8572 C   0  0  0  0  0  0  0  0  0  0  0  0
   15.9612   -3.6742   -3.0473 H   0  0  0  0  0  0  0  0  0  0  0  0
   16.4177   -1.7241   -3.8398 C   0  0  0  0  0  0  0  0  0  0  0  0
   16.8110   -2.1072   -4.7760 H   0  0  0  0  0  0  0  0  0  0  0  0
   16.3818   -0.3431   -3.6236 C   0  0  0  0  0  0  0  0  0  0  0  0
   16.7524    0.3406   -4.3840 H   0  0  0  0  0  0  0  0  0  0  0  0
   15.8674    0.1529   -2.4224 C   0  0  0  0  0  0  0  0  0  0  0  0
   15.8286    1.2250   -2.2483 H   0  0  0  0  0  0  0  0  0  0  0  0
   15.3944   -0.7313   -1.4419 C   0  0  0  0  0  0  0  0  0  0  0  0
   14.9865   -0.3283   -0.5189 H   0  0  0  0  0  0  0  0  0  0  0  0
   13.3436   -2.7565   -0.4097 C   0  0  0  0  0  0  0  0  0  0  0  0
   12.4691   -2.8597   -1.2705 O   0  0  0  0  0  0  0  0  0  0  0  0
   13.0877   -2.3819    0.8930 N   0  0  0  0  0  0  0  0  0  0  0  0
   11.7626   -2.1816    1.4831 C   0  0  0  0  0  0  0  0  0  0  0  0
   11.6255   -1.1392    1.7917 H   0  0  0  0  0  0  0  0  0  0  0  0
   10.9782   -2.4238    0.7544 H   0  0  0  0  0  0  0  0  0  0  0  0
   11.6284   -2.8323    2.3553 H   0  0  0  0  0  0  0  0  0  0  0  0
   14.2946   -2.4269    1.5630 C   0  0  0  0  0  0  0  0  0  0  0  0
   14.4662   -2.2603    2.9050 N   0  0  0  0  0  0  0  0  0  0  0  0
   13.6770   -1.9516    3.4700 H   0  0  0  0  0  0  0  0  0  0  0  0
   15.4161   -2.1569    3.2615 H   0  0  0  0  0  0  0  0  0  0  0  0
   15.2910   -2.7090    0.7839 N   0  0  0  0  0  4  0  0  0  0  0  0
   16.2403   -2.8765    1.1238 H   0  0  0  0  0  0  0  0  0  0  0  0
   14.0805   -5.4585   -1.2270 C   0  0  0  0  0  0  0  0  0  0  0  0
   13.0787   -5.0794   -1.4016 H   0  0  0  0  0  0  0  0  0  0  0  0
   13.6235   -9.0210   -2.3782 C   0  0  0  0  0  0  0  0  0  0  0  0
   14.6759   -9.2219   -2.5280 H   0  0  0  0  0  0  0  0  0  0  0  0
   12.6777   -9.9411   -2.8254 C   0  0  0  0  0  0  0  0  0  0  0  0
   13.0193  -10.8334   -3.3496 H   0  0  0  0  0  0  0  0  0  0  0  0
  1  2  1  0
  2  3  1  0
  3  4  2  0
  3  5  1  0
  5  6  2  0
  6  7  1  0
  6  8  1  0
  8  9  1  0
  8 10  2  0
 10 11  1  0
 11 12  2  0
 12 13  1  0
 12 14  1  0
 14 15  1  0
 14 16  2  0
 16 17  1  0
 16 18  1  0
 18 19  1  0
 19 20  1  0
 20 21  2  0
 21 22  1  0
 21 23  1  0
 23 24  1  0
 23 25  2  0
 25 26  1  0
 25 27  1  0
 27 28  1  0
 27 29  2  0
 29 30  1  0
 19 31  1  0
 31 32  2  0
 31 33  1  0
 33 34  1  0
 34 35  1  0
 34 36  1  0
 34 37  1  0
 33 38  1  0
 38 39  1  0
 39 40  1  0
 39 41  1  0
 38 42  2  0
 42 43  1  0
 18 44  2  0
 44 45  1  0
 10 46  1  0
 46 47  1  0
 46 48  2  0
 48 49  1  0
 48  5  1  0
 44 11  1  0
 42 19  1  0
 29 20  1  0
M  CHG  1  42   1
M  END
>  <score>  (339) 
5.27309

$$$$

     RDKit          3D

 47 50  0  0  0  0  0  0  0  0999 V2000
   16.1218   -8.4283   -1.6934 H   0  0  0  0  0  0  0  0  0  0  0  0
   15.8811   -7.3872   -1.4969 C   0  0  0  0  0  0  0  0  0  0  0  0
   16.7740   -6.5705   -0.7965 C   0  0  0  0  0  0  0  0  0  0  0  0
   17.7220   -6.9793   -0.4609 H   0  0  0  0  0  0  0  0  0  0  0  0
   16.4443   -5.2352   -0.5315 C   0  0  0  0  0  0  0  0  0  0  0  0
   17.1526   -4.6116    0.0077 H   0  0  0  0  0  0  0  0  0  0  0  0
   15.2163   -4.7004   -0.9592 C   0  0  0  0  0  0  0  0  0  0  0  0
   14.8451   -3.2519   -0.6598 C   0  0  0  0  0  0  0  0  0  0  0  0
   15.4323   -2.2659   -1.6549 C   0  0  0  0  0  0  0  0  0  0  0  0
   15.9224   -2.6821   -2.9038 C   0  0  0  0  0  0  0  0  0  0  0  0
   15.9549   -3.7407   -3.1420 H   0  0  0  0  0  0  0  0  0  0  0  0
   16.3638   -1.7462   -3.8459 C   0  0  0  0  0  0  0  0  0  0  0  0
   16.7522   -2.0726   -4.8056 H   0  0  0  0  0  0  0  0  0  0  0  0
   16.2886   -0.3814   -3.5526 C   0  0  0  0  0  0  0  0  0  0  0  0
   16.6232    0.3599   -4.2704 H   0  0  0  0  0  0  0  0  0  0  0  0
   15.7957    0.0479   -2.3179 C   0  0  0  0  0  0  0  0  0  0  0  0
   15.6977    1.3990   -2.0055 N   0  0  0  0  0  0  0  0  0  0  0  0
   15.5906    1.6675   -1.0348 H   0  0  0  0  0  0  0  0  0  0  0  0
   15.5656    2.3924   -2.9487 C   0  0  0  0  0  0  0  0  0  0  0  0
   15.5247    2.1161   -4.1372 O   0  0  0  0  0  0  0  0  0  0  0  0
   15.5908    3.8574   -2.5229 C   0  0  0  0  0  0  0  0  0  0  0  0
   16.6036    4.2609   -2.5559 H   0  0  0  0  0  0  0  0  0  0  0  0
   14.4585    4.8146   -2.9023 C   0  0  0  0  0  0  0  0  0  0  0  0
   14.7499    5.8312   -3.1876 H   0  0  0  0  0  0  0  0  0  0  0  0
   13.5840    4.4206   -3.4360 H   0  0  0  0  0  0  0  0  0  0  0  0
   14.6567    4.4092   -1.4428 C   0  0  0  0  0  0  0  0  0  0  0  0
   15.0539    5.1766   -0.7680 H   0  0  0  0  0  0  0  0  0  0  0  0
   13.9111    3.7431   -0.9919 H   0  0  0  0  0  0  0  0  0  0  0  0
   15.3839   -0.8889   -1.3773 C   0  0  0  0  0  0  0  0  0  0  0  0
   14.9870   -0.5325   -0.4324 H   0  0  0  0  0  0  0  0  0  0  0  0
   13.3264   -3.0109   -0.5767 C   0  0  0  0  0  0  0  0  0  0  0  0
   12.5041   -3.2453   -1.4580 O   0  0  0  0  0  0  0  0  0  0  0  0
   12.9790   -2.5073    0.6652 N   0  0  0  0  0  0  0  0  0  0  0  0
   11.6238   -2.2649    1.1873 C   0  0  0  0  0  0  0  0  0  0  0  0
   11.4074   -2.9452    2.0197 H   0  0  0  0  0  0  0  0  0  0  0  0
   10.8588   -2.4302    0.4195 H   0  0  0  0  0  0  0  0  0  0  0  0
   11.5075   -1.2336    1.5446 H   0  0  0  0  0  0  0  0  0  0  0  0
   14.1467   -2.4985    1.4032 C   0  0  0  0  0  0  0  0  0  0  0  0
   14.2814   -2.1015    2.6998 N   0  0  0  0  0  0  0  0  0  0  0  0
   13.4455   -1.8918    3.2339 H   0  0  0  0  0  0  0  0  0  0  0  0
   15.1475   -2.3357    3.1880 H   0  0  0  0  0  0  0  0  0  0  0  0
   15.1748   -2.9031    0.7329 N   0  0  0  0  0  4  0  0  0  0  0  0
   16.1319   -2.8572    1.0855 H   0  0  0  0  0  0  0  0  0  0  0  0
   14.3427   -5.5244   -1.6908 C   0  0  0  0  0  0  0  0  0  0  0  0
   13.4042   -5.1238   -2.0624 H   0  0  0  0  0  0  0  0  0  0  0  0
   14.6707   -6.8592   -1.9521 C   0  0  0  0  0  0  0  0  0  0  0  0
   13.9841   -7.4815   -2.5175 H   0  0  0  0  0  0  0  0  0  0  0  0
  1  2  1  0
  2  3  2  0
  3  4  1  0
  3  5  1  0
  5  6  1  0
  5  7  2  0
  7  8  1  0
  8  9  1  0
  9 10  2  0
 10 11  1  0
 10 12  1  0
 12 13  1  0
 12 14  2  0
 14 15  1  0
 14 16  1  0
 16 17  1  0
 17 18  1  0
 17 19  1  0
 19 20  2  0
 19 21  1  0
 21 22  1  0
 21 23  1  0
 23 24  1  0
 23 25  1  0
 23 26  1  0
 26 27  1  0
 26 28  1  0
 16 29  2  0
 29 30  1  0
  8 31  1  0
 31 32  2  0
 31 33  1  0
 33 34  1  0
 34 35  1  0
 34 36  1  0
 34 37  1  0
 33 38  1  0
 38 39  1  0
 39 40  1  0
 39 41  1  0
 38 42  2  0
 42 43  1  0
  7 44  1  0
 44 45  1  0
 44 46  2  0
 46 47  1  0
 46  2  1  0
 42  8  1  0
 29  9  1  0
 26 21  1  0
M  CHG  1  42   1
M  END
>  <score>  (340) 
5.27243

$$$$

     RDKit          3D

 36 38  0  0  0  0  0  0  0  0999 V2000
   16.1250   -8.4894   -1.6109 H   0  0  0  0  0  0  0  0  0  0  0  0
   15.8536   -7.4450   -1.4705 C   0  0  0  0  0  0  0  0  0  0  0  0
   16.7273   -6.5863   -0.8002 C   0  0  0  0  0  0  0  0  0  0  0  0
   17.6747   -6.9552   -0.4185 H   0  0  0  0  0  0  0  0  0  0  0  0
   16.3875   -5.2422   -0.6099 C   0  0  0  0  0  0  0  0  0  0  0  0
   17.0682   -4.5929   -0.0674 H   0  0  0  0  0  0  0  0  0  0  0  0
   15.1685   -4.7204   -1.0726 C   0  0  0  0  0  0  0  0  0  0  0  0
   14.8119   -3.2537   -0.7835 C   0  0  0  0  0  0  0  0  0  0  0  0
   15.3842   -2.2487   -1.7825 C   0  0  0  0  0  0  0  0  0  0  0  0
   15.9415   -2.6394   -3.0112 C   0  0  0  0  0  0  0  0  0  0  0  0
   16.0046   -3.6909   -3.2633 H   0  0  0  0  0  0  0  0  0  0  0  0
   16.4234   -1.6912   -3.9243 C   0  0  0  0  0  0  0  0  0  0  0  0
   16.8597   -2.0057   -4.8667 H   0  0  0  0  0  0  0  0  0  0  0  0
   16.3467   -0.3307   -3.6266 C   0  0  0  0  0  0  0  0  0  0  0  0
   16.7022    0.4147   -4.3330 H   0  0  0  0  0  0  0  0  0  0  0  0
   15.7946    0.0801   -2.4142 C   0  0  0  0  0  0  0  0  0  0  0  0
   15.7188    1.3969   -2.1248 F   0  0  0  0  0  0  0  0  0  0  0  0
   15.3168   -0.8710   -1.5067 C   0  0  0  0  0  0  0  0  0  0  0  0
   14.8988   -0.5199   -0.5689 H   0  0  0  0  0  0  0  0  0  0  0  0
   13.2992   -3.0194   -0.6079 C   0  0  0  0  0  0  0  0  0  0  0  0
   12.4307   -3.0808   -1.4758 O   0  0  0  0  0  0  0  0  0  0  0  0
   13.0228   -2.6706    0.7006 N   0  0  0  0  0  0  0  0  0  0  0  0
   11.7206   -2.3132    1.2616 C   0  0  0  0  0  0  0  0  0  0  0  0
   11.6931   -1.2620    1.5603 H   0  0  0  0  0  0  0  0  0  0  0  0
   11.5015   -2.9185    2.1444 H   0  0  0  0  0  0  0  0  0  0  0  0
   10.9139   -2.4737    0.5399 H   0  0  0  0  0  0  0  0  0  0  0  0
   14.2236   -2.6313    1.3672 C   0  0  0  0  0  0  0  0  0  0  0  0
   14.3929   -2.3365    2.6887 N   0  0  0  0  0  0  0  0  0  0  0  0
   13.5803   -2.1265    3.2653 H   0  0  0  0  0  0  0  0  0  0  0  0
   15.3280   -2.3561    3.0952 H   0  0  0  0  0  0  0  0  0  0  0  0
   15.2186   -2.9095    0.5938 N   0  0  0  0  0  4  0  0  0  0  0  0
   16.1890   -2.9037    0.9029 H   0  0  0  0  0  0  0  0  0  0  0  0
   14.3010   -5.5938   -1.7677 C   0  0  0  0  0  0  0  0  0  0  0  0
   13.3526   -5.2426   -2.1649 H   0  0  0  0  0  0  0  0  0  0  0  0
   14.6428   -6.9452   -1.9610 C   0  0  0  0  0  0  0  0  0  0  0  0
   13.9731   -7.6190   -2.4885 H   0  0  0  0  0  0  0  0  0  0  0  0
  1  2  1  0
  2  3  2  0
  3  4  1  0
  3  5  1  0
  5  6  1  0
  5  7  2  0
  7  8  1  0
  8  9  1  0
  9 10  2  0
 10 11  1  0
 10 12  1  0
 12 13  1  0
 12 14  2  0
 14 15  1  0
 14 16  1  0
 16 17  1  0
 16 18  2  0
 18 19  1  0
  8 20  1  0
 20 21  2  0
 20 22  1  0
 22 23  1  0
 23 24  1  0
 23 25  1  0
 23 26  1  0
 22 27  1  0
 27 28  1  0
 28 29  1  0
 28 30  1  0
 27 31  2  0
 31 32  1  0
  7 33  1  0
 33 34  1  0
 33 35  2  0
 35 36  1  0
 35  2  1  0
 31  8  1  0
 18  9  1  0
M  CHG  1  31   1
M  END
>  <score>  (341) 
5.27154

$$$$

     RDKit          3D

 38 40  0  0  0  0  0  0  0  0999 V2000
   16.1217   -8.4863   -1.6112 H   0  0  0  0  0  0  0  0  0  0  0  0
   15.8536   -7.4413   -1.4728 C   0  0  0  0  0  0  0  0  0  0  0  0
   16.7287   -6.5837   -0.8020 C   0  0  0  0  0  0  0  0  0  0  0  0
   17.6726   -6.9558   -0.4171 H   0  0  0  0  0  0  0  0  0  0  0  0
   16.3922   -5.2382   -0.6117 C   0  0  0  0  0  0  0  0  0  0  0  0
   17.0668   -4.5877   -0.0640 H   0  0  0  0  0  0  0  0  0  0  0  0
   15.1743   -4.7123   -1.0754 C   0  0  0  0  0  0  0  0  0  0  0  0
   14.8181   -3.2444   -0.7837 C   0  0  0  0  0  0  0  0  0  0  0  0
   15.3831   -2.2304   -1.7786 C   0  0  0  0  0  0  0  0  0  0  0  0
   15.9376   -2.6223   -3.0074 C   0  0  0  0  0  0  0  0  0  0  0  0
   16.0007   -3.6752   -3.2538 H   0  0  0  0  0  0  0  0  0  0  0  0
   16.4192   -1.6724   -3.9169 C   0  0  0  0  0  0  0  0  0  0  0  0
   16.8531   -1.9928   -4.8555 H   0  0  0  0  0  0  0  0  0  0  0  0
   16.3431   -0.3103   -3.6159 C   0  0  0  0  0  0  0  0  0  0  0  0
   16.6966    0.4412   -4.3112 H   0  0  0  0  0  0  0  0  0  0  0  0
   15.7903    0.0933   -2.4121 C   0  0  0  0  0  0  0  0  0  0  0  0
   15.7061    1.4362   -2.1196 N   0  0  0  0  0  0  0  0  0  0  0  0
   16.0605    2.1220   -2.7803 H   0  0  0  0  0  0  0  0  0  0  0  0
   15.3240    1.7260   -1.2238 H   0  0  0  0  0  0  0  0  0  0  0  0
   15.3131   -0.8491   -1.5065 C   0  0  0  0  0  0  0  0  0  0  0  0
   14.8975   -0.4939   -0.5720 H   0  0  0  0  0  0  0  0  0  0  0  0
   13.3086   -3.0150   -0.6074 C   0  0  0  0  0  0  0  0  0  0  0  0
   12.4388   -3.0857   -1.4714 O   0  0  0  0  0  0  0  0  0  0  0  0
   13.0269   -2.6729    0.7014 N   0  0  0  0  0  0  0  0  0  0  0  0
   11.7205   -2.3136    1.2609 C   0  0  0  0  0  0  0  0  0  0  0  0
   11.6948   -1.2632    1.5594 H   0  0  0  0  0  0  0  0  0  0  0  0
   11.5035   -2.9168    2.1447 H   0  0  0  0  0  0  0  0  0  0  0  0
   10.9141   -2.4734    0.5418 H   0  0  0  0  0  0  0  0  0  0  0  0
   14.2242   -2.6316    1.3671 C   0  0  0  0  0  0  0  0  0  0  0  0
   14.3957   -2.3318    2.6851 N   0  0  0  0  0  0  0  0  0  0  0  0
   13.5820   -2.1268    3.2617 H   0  0  0  0  0  0  0  0  0  0  0  0
   15.3308   -2.3539    3.0912 H   0  0  0  0  0  0  0  0  0  0  0  0
   15.2208   -2.9110    0.5981 N   0  0  0  0  0  4  0  0  0  0  0  0
   16.1893   -2.9119    0.9125 H   0  0  0  0  0  0  0  0  0  0  0  0
   14.3035   -5.5871   -1.7668 C   0  0  0  0  0  0  0  0  0  0  0  0
   13.3533   -5.2335   -2.1575 H   0  0  0  0  0  0  0  0  0  0  0  0
   14.6429   -6.9394   -1.9617 C   0  0  0  0  0  0  0  0  0  0  0  0
   13.9726   -7.6132   -2.4880 H   0  0  0  0  0  0  0  0  0  0  0  0
  1  2  1  0
  2  3  2  0
  3  4  1  0
  3  5  1  0
  5  6  1  0
  5  7  2  0
  7  8  1  0
  8  9  1  0
  9 10  2  0
 10 11  1  0
 10 12  1  0
 12 13  1  0
 12 14  2  0
 14 15  1  0
 14 16  1  0
 16 17  1  0
 17 18  1  0
 17 19  1  0
 16 20  2  0
 20 21  1  0
  8 22  1  0
 22 23  2  0
 22 24  1  0
 24 25  1  0
 25 26  1  0
 25 27  1  0
 25 28  1  0
 24 29  1  0
 29 30  1  0
 30 31  1  0
 30 32  1  0
 29 33  2  0
 33 34  1  0
  7 35  1  0
 35 36  1  0
 35 37  2  0
 37 38  1  0
 37  2  1  0
 33  8  1  0
 20  9  1  0
M  CHG  1  33   1
M  END
>  <score>  (342) 
5.26806

$$$$

     RDKit          3D

 37 39  0  0  0  0  0  0  0  0999 V2000
   16.1194   -8.4830   -1.6114 H   0  0  0  0  0  0  0  0  0  0  0  0
   15.8551   -7.4357   -1.4731 C   0  0  0  0  0  0  0  0  0  0  0  0
   16.7300   -6.5779   -0.8023 C   0  0  0  0  0  0  0  0  0  0  0  0
   17.6728   -6.9549   -0.4177 H   0  0  0  0  0  0  0  0  0  0  0  0
   16.3889   -5.2341   -0.6009 C   0  0  0  0  0  0  0  0  0  0  0  0
   17.0722   -4.5868   -0.0609 H   0  0  0  0  0  0  0  0  0  0  0  0
   15.1671   -4.7096   -1.0509 C   0  0  0  0  0  0  0  0  0  0  0  0
   14.8098   -3.2440   -0.7491 C   0  0  0  0  0  0  0  0  0  0  0  0
   15.3872   -2.2453   -1.7601 C   0  0  0  0  0  0  0  0  0  0  0  0
   15.9388   -2.6414   -2.9942 C   0  0  0  0  0  0  0  0  0  0  0  0
   16.0004   -3.6935   -3.2521 H   0  0  0  0  0  0  0  0  0  0  0  0
   16.4189   -1.6938   -3.9142 C   0  0  0  0  0  0  0  0  0  0  0  0
   16.8532   -2.0048   -4.8604 H   0  0  0  0  0  0  0  0  0  0  0  0
   16.3454   -0.3294   -3.6251 C   0  0  0  0  0  0  0  0  0  0  0  0
   16.7126    0.4010   -4.3459 H   0  0  0  0  0  0  0  0  0  0  0  0
   15.7950    0.0885   -2.4083 C   0  0  0  0  0  0  0  0  0  0  0  0
   15.7148    1.4833   -2.1007 C   0  0  0  0  0  0  0  0  0  0  0  0
   15.6464    2.6220   -1.8600 N   0  0  0  0  0  0  0  0  0  0  0  0
   15.3211   -0.8662   -1.4934 C   0  0  0  0  0  0  0  0  0  0  0  0
   14.8917   -0.5350   -0.5527 H   0  0  0  0  0  0  0  0  0  0  0  0
   13.2938   -3.0251   -0.5829 C   0  0  0  0  0  0  0  0  0  0  0  0
   12.4411   -3.0890   -1.4630 O   0  0  0  0  0  0  0  0  0  0  0  0
   12.9937   -2.6693    0.7134 N   0  0  0  0  0  0  0  0  0  0  0  0
   11.6911   -2.3101    1.2631 C   0  0  0  0  0  0  0  0  0  0  0  0
   10.9053   -2.4222    0.5076 H   0  0  0  0  0  0  0  0  0  0  0  0
   11.6995   -1.2703    1.6094 H   0  0  0  0  0  0  0  0  0  0  0  0
   11.4593   -2.9596    2.1141 H   0  0  0  0  0  0  0  0  0  0  0  0
   14.1756   -2.6165    1.3973 C   0  0  0  0  0  0  0  0  0  0  0  0
   14.2063   -2.3217    2.7258 N   0  0  0  0  0  0  0  0  0  0  0  0
   13.8851   -1.3737    2.9068 H   0  0  0  0  0  0  0  0  0  0  0  0
   13.6882   -3.0103    3.2667 H   0  0  0  0  0  0  0  0  0  0  0  0
   15.1929   -2.8908    0.6426 N   0  0  0  0  0  4  0  0  0  0  0  0
   16.1525   -2.8953    0.9867 H   0  0  0  0  0  0  0  0  0  0  0  0
   14.3052   -5.5800   -1.7603 C   0  0  0  0  0  0  0  0  0  0  0  0
   13.3553   -5.2286   -2.1527 H   0  0  0  0  0  0  0  0  0  0  0  0
   14.6449   -6.9325   -1.9613 C   0  0  0  0  0  0  0  0  0  0  0  0
   13.9721   -7.6065   -2.4876 H   0  0  0  0  0  0  0  0  0  0  0  0
  1  2  1  0
  2  3  2  0
  3  4  1  0
  3  5  1  0
  5  6  1  0
  5  7  2  0
  7  8  1  0
  8  9  1  0
  9 10  2  0
 10 11  1  0
 10 12  1  0
 12 13  1  0
 12 14  2  0
 14 15  1  0
 14 16  1  0
 16 17  1  0
 17 18  3  0
 16 19  2  0
 19 20  1  0
  8 21  1  0
 21 22  2  0
 21 23  1  0
 23 24  1  0
 24 25  1  0
 24 26  1  0
 24 27  1  0
 23 28  1  0
 28 29  1  0
 29 30  1  0
 29 31  1  0
 28 32  2  0
 32 33  1  0
  7 34  1  0
 34 35  1  0
 34 36  2  0
 36 37  1  0
 36  2  1  0
 32  8  1  0
 19  9  1  0
M  CHG  1  32   1
M  END
>  <score>  (343) 
5.26624

$$$$

     RDKit          3D

 55 58  0  0  0  0  0  0  0  0999 V2000
   11.6324   -7.0646   -0.9472 H   0  0  0  0  0  0  0  0  0  0  0  0
   11.9822   -7.9457   -1.4794 C   0  0  0  0  0  0  0  0  0  0  0  0
   11.0608   -8.8433   -1.8874 N   0  0  0  0  0  0  0  0  0  0  0  0
   11.4858   -9.9517   -2.5152 C   0  0  0  0  0  0  0  0  0  0  0  0
   10.6317  -10.9364   -2.9271 O   0  0  0  0  0  0  0  0  0  0  0  0
    9.2264  -10.6910   -2.8157 C   0  0  0  0  0  0  0  0  0  0  0  0
    9.0068   -9.8083   -2.2045 H   0  0  0  0  0  0  0  0  0  0  0  0
    8.6297  -11.9113   -2.1302 C   0  0  0  0  0  0  0  0  0  0  0  0
    9.0953  -12.0554   -1.1534 H   0  0  0  0  0  0  0  0  0  0  0  0
    7.5537  -11.7933   -1.9889 H   0  0  0  0  0  0  0  0  0  0  0  0
    8.7990  -12.8054   -2.7320 H   0  0  0  0  0  0  0  0  0  0  0  0
    8.6440  -10.5171   -4.2211 C   0  0  0  0  0  0  0  0  0  0  0  0
    7.7159  -11.0858   -4.3314 H   0  0  0  0  0  0  0  0  0  0  0  0
    9.3548  -10.8720   -4.9733 H   0  0  0  0  0  0  0  0  0  0  0  0
    8.4220   -9.4659   -4.4199 H   0  0  0  0  0  0  0  0  0  0  0  0
   12.8383  -10.1924   -2.7373 C   0  0  0  0  0  0  0  0  0  0  0  0
   13.1296  -11.1006   -3.2468 H   0  0  0  0  0  0  0  0  0  0  0  0
   13.7925   -9.2864   -2.3003 C   0  0  0  0  0  0  0  0  0  0  0  0
   14.8523   -9.4843   -2.4332 H   0  0  0  0  0  0  0  0  0  0  0  0
   13.3671   -8.1147   -1.6737 C   0  0  0  0  0  0  0  0  0  0  0  0
   14.3778   -7.1208   -1.2317 C   0  0  0  0  0  0  0  0  0  0  0  0
   15.7101   -7.5304   -1.0554 C   0  0  0  0  0  0  0  0  0  0  0  0
   15.9697   -8.5682   -1.2298 H   0  0  0  0  0  0  0  0  0  0  0  0
   16.7053   -6.6325   -0.6635 C   0  0  0  0  0  0  0  0  0  0  0  0
   17.7321   -6.9632   -0.5356 H   0  0  0  0  0  0  0  0  0  0  0  0
   16.3758   -5.3019   -0.4266 C   0  0  0  0  0  0  0  0  0  0  0  0
   17.1433   -4.6103   -0.0916 H   0  0  0  0  0  0  0  0  0  0  0  0
   15.0612   -4.8486   -0.5913 C   0  0  0  0  0  0  0  0  0  0  0  0
   14.7677   -3.3766   -0.3587 C   0  0  0  0  0  0  0  0  0  0  0  0
   15.3836   -2.4795   -1.4241 C   0  0  0  0  0  0  0  0  0  0  0  0
   15.8733   -3.0034   -2.6337 C   0  0  0  0  0  0  0  0  0  0  0  0
   15.8932   -4.0783   -2.7855 H   0  0  0  0  0  0  0  0  0  0  0  0
   16.3229   -2.1563   -3.6541 C   0  0  0  0  0  0  0  0  0  0  0  0
   16.6784   -2.5727   -4.5902 H   0  0  0  0  0  0  0  0  0  0  0  0
   16.2987   -0.7700   -3.4784 C   0  0  0  0  0  0  0  0  0  0  0  0
   16.6305   -0.1142   -4.2795 H   0  0  0  0  0  0  0  0  0  0  0  0
   15.8485   -0.2345   -2.2679 C   0  0  0  0  0  0  0  0  0  0  0  0
   15.8368    0.8417   -2.1184 H   0  0  0  0  0  0  0  0  0  0  0  0
   15.3961   -1.0851   -1.2518 C   0  0  0  0  0  0  0  0  0  0  0  0
   15.0418   -0.6570   -0.3194 H   0  0  0  0  0  0  0  0  0  0  0  0
   13.2672   -3.0604   -0.2151 C   0  0  0  0  0  0  0  0  0  0  0  0
   12.4030   -3.1241   -1.0872 O   0  0  0  0  0  0  0  0  0  0  0  0
   13.0175   -2.6400    1.0744 N   0  0  0  0  0  0  0  0  0  0  0  0
   11.7350   -2.2580    1.6568 C   0  0  0  0  0  0  0  0  0  0  0  0
   11.6900   -2.5737    2.7055 H   0  0  0  0  0  0  0  0  0  0  0  0
   10.9038   -2.7368    1.1299 H   0  0  0  0  0  0  0  0  0  0  0  0
   11.6023   -1.1712    1.6066 H   0  0  0  0  0  0  0  0  0  0  0  0
   14.2189   -2.6618    1.7433 C   0  0  0  0  0  0  0  0  0  0  0  0
   14.3810   -2.3583    3.0563 N   0  0  0  0  0  0  0  0  0  0  0  0
   13.6277   -1.8450    3.5089 H   0  0  0  0  0  0  0  0  0  0  0  0
   15.3303   -2.2253    3.3965 H   0  0  0  0  0  0  0  0  0  0  0  0
   15.2090   -3.0176    0.9988 N   0  0  0  0  0  4  0  0  0  0  0  0
   16.1499   -3.2105    1.3479 H   0  0  0  0  0  0  0  0  0  0  0  0
   14.0676   -5.7662   -1.0017 C   0  0  0  0  0  0  0  0  0  0  0  0
   13.0489   -5.4272   -1.1579 H   0  0  0  0  0  0  0  0  0  0  0  0
  1  2  1  0
  2  3  2  0
  3  4  1  0
  4  5  1  0
  5  6  1  0
  6  7  1  0
  6  8  1  0
  8  9  1  0
  8 10  1  0
  8 11  1  0
  6 12  1  0
 12 13  1  0
 12 14  1  0
 12 15  1  0
  4 16  2  0
 16 17  1  0
 16 18  1  0
 18 19  1  0
 18 20  2  0
 20 21  1  0
 21 22  2  0
 22 23  1  0
 22 24  1  0
 24 25  1  0
 24 26  2  0
 26 27  1  0
 26 28  1  0
 28 29  1  0
 29 30  1  0
 30 31  2  0
 31 32  1  0
 31 33  1  0
 33 34  1  0
 33 35  2  0
 35 36  1  0
 35 37  1  0
 37 38  1  0
 37 39  2  0
 39 40  1  0
 29 41  1  0
 41 42  2  0
 41 43  1  0
 43 44  1  0
 44 45  1  0
 44 46  1  0
 44 47  1  0
 43 48  1  0
 48 49  1  0
 49 50  1  0
 49 51  1  0
 48 52  2  0
 52 53  1  0
 28 54  2  0
 54 55  1  0
 20  2  1  0
 54 21  1  0
 52 29  1  0
 39 30  1  0
M  CHG  1  52   1
M  END
>  <score>  (344) 
5.26599

$$$$

     RDKit          3D

 40 42  0  0  0  0  0  0  0  0999 V2000
   16.1102   -8.4759   -1.6131 H   0  0  0  0  0  0  0  0  0  0  0  0
   15.8571   -7.4265   -1.4780 C   0  0  0  0  0  0  0  0  0  0  0  0
   16.7363   -6.5726   -0.8071 C   0  0  0  0  0  0  0  0  0  0  0  0
   17.6708   -6.9591   -0.4122 H   0  0  0  0  0  0  0  0  0  0  0  0
   16.3991   -5.2281   -0.6091 C   0  0  0  0  0  0  0  0  0  0  0  0
   17.0713   -4.5768   -0.0574 H   0  0  0  0  0  0  0  0  0  0  0  0
   15.1849   -4.7039   -1.0793 C   0  0  0  0  0  0  0  0  0  0  0  0
   14.8223   -3.2432   -0.7755 C   0  0  0  0  0  0  0  0  0  0  0  0
   15.3763   -2.2187   -1.7617 C   0  0  0  0  0  0  0  0  0  0  0  0
   15.9308   -2.6201   -2.9864 C   0  0  0  0  0  0  0  0  0  0  0  0
   15.9913   -3.6744   -3.2354 H   0  0  0  0  0  0  0  0  0  0  0  0
   16.4112   -1.6786   -3.8990 C   0  0  0  0  0  0  0  0  0  0  0  0
   16.8425   -1.9832   -4.8450 H   0  0  0  0  0  0  0  0  0  0  0  0
   16.3333   -0.3209   -3.5981 C   0  0  0  0  0  0  0  0  0  0  0  0
   16.6977    0.4318   -4.2882 H   0  0  0  0  0  0  0  0  0  0  0  0
   15.7890    0.1159   -2.3970 C   0  0  0  0  0  0  0  0  0  0  0  0
   15.7726    1.4732   -2.2118 O   0  0  0  0  0  0  0  0  0  0  0  0
   15.1991    1.9887   -1.0049 C   0  0  0  0  0  0  0  0  0  0  0  0
   15.6913    1.5627   -0.1228 H   0  0  0  0  0  0  0  0  0  0  0  0
   13.8608    1.7499   -0.9674 F   0  0  0  0  0  0  0  0  0  0  0  0
   15.3795    3.3359   -1.0172 F   0  0  0  0  0  0  0  0  0  0  0  0
   15.3074   -0.8330   -1.4791 C   0  0  0  0  0  0  0  0  0  0  0  0
   14.8771   -0.4869   -0.5443 H   0  0  0  0  0  0  0  0  0  0  0  0
   13.3058   -3.0336   -0.5961 C   0  0  0  0  0  0  0  0  0  0  0  0
   12.4449   -3.1036   -1.4700 O   0  0  0  0  0  0  0  0  0  0  0  0
   13.0247   -2.6795    0.7082 N   0  0  0  0  0  0  0  0  0  0  0  0
   11.7194   -2.3128    1.2681 C   0  0  0  0  0  0  0  0  0  0  0  0
   10.9111   -2.4765    0.5378 H   0  0  0  0  0  0  0  0  0  0  0  0
   11.7035   -1.2530    1.5585 H   0  0  0  0  0  0  0  0  0  0  0  0
   11.5054   -2.9210    2.1570 H   0  0  0  0  0  0  0  0  0  0  0  0
   14.2350   -2.6266    1.3680 C   0  0  0  0  0  0  0  0  0  0  0  0
   14.4009   -2.3154    2.6820 N   0  0  0  0  0  0  0  0  0  0  0  0
   13.5864   -2.1261    3.2617 H   0  0  0  0  0  0  0  0  0  0  0  0
   15.3410   -2.3469    3.0853 H   0  0  0  0  0  0  0  0  0  0  0  0
   15.2329   -2.9101    0.6039 N   0  0  0  0  0  4  0  0  0  0  0  0
   16.2018   -2.9429    0.9337 H   0  0  0  0  0  0  0  0  0  0  0  0
   14.3122   -5.5729   -1.7688 C   0  0  0  0  0  0  0  0  0  0  0  0
   13.3576   -5.2064   -2.1352 H   0  0  0  0  0  0  0  0  0  0  0  0
   14.6460   -6.9247   -1.9639 C   0  0  0  0  0  0  0  0  0  0  0  0
   13.9670   -7.5927   -2.4871 H   0  0  0  0  0  0  0  0  0  0  0  0
  1  2  1  0
  2  3  2  0
  3  4  1  0
  3  5  1  0
  5  6  1  0
  5  7  2  0
  7  8  1  0
  8  9  1  0
  9 10  2  0
 10 11  1  0
 10 12  1  0
 12 13  1  0
 12 14  2  0
 14 15  1  0
 14 16  1  0
 16 17  1  0
 17 18  1  0
 18 19  1  0
 18 20  1  0
 18 21  1  0
 16 22  2  0
 22 23  1  0
  8 24  1  0
 24 25  2  0
 24 26  1  0
 26 27  1  0
 27 28  1  0
 27 29  1  0
 27 30  1  0
 26 31  1  0
 31 32  1  0
 32 33  1  0
 32 34  1  0
 31 35  2  0
 35 36  1  0
  7 37  1  0
 37 38  1  0
 37 39  2  0
 39 40  1  0
 39  2  1  0
 35  8  1  0
 22  9  1  0
M  CHG  1  35   1
M  END
>  <score>  (345) 
5.26525

$$$$

     RDKit          3D

 52 55  0  0  0  0  0  0  0  0999 V2000
   16.0824   -8.3323   -1.6678 H   0  0  0  0  0  0  0  0  0  0  0  0
   15.8689   -7.2786   -1.5064 C   0  0  0  0  0  0  0  0  0  0  0  0
   16.7785   -6.4681   -0.8184 C   0  0  0  0  0  0  0  0  0  0  0  0
   17.7084   -6.8952   -0.4522 H   0  0  0  0  0  0  0  0  0  0  0  0
   16.4799   -5.1158   -0.5838 C   0  0  0  0  0  0  0  0  0  0  0  0
   17.1880   -4.5023   -0.0343 H   0  0  0  0  0  0  0  0  0  0  0  0
   15.2671   -4.5534   -1.0250 C   0  0  0  0  0  0  0  0  0  0  0  0
   14.8786   -3.1013   -0.7122 C   0  0  0  0  0  0  0  0  0  0  0  0
   15.3231   -2.0717   -1.7605 C   0  0  0  0  0  0  0  0  0  0  0  0
   16.0249   -2.4801   -2.9038 C   0  0  0  0  0  0  0  0  0  0  0  0
   16.2631   -3.5318   -3.0238 H   0  0  0  0  0  0  0  0  0  0  0  0
   16.3855   -1.5599   -3.8947 C   0  0  0  0  0  0  0  0  0  0  0  0
   16.9271   -1.8877   -4.7764 H   0  0  0  0  0  0  0  0  0  0  0  0
   16.0428   -0.2138   -3.7590 C   0  0  0  0  0  0  0  0  0  0  0  0
   16.3224    0.4960   -4.5333 H   0  0  0  0  0  0  0  0  0  0  0  0
   15.3498    0.2422   -2.6308 C   0  0  0  0  0  0  0  0  0  0  0  0
   15.0401    1.7301   -2.5217 C   0  0  0  0  0  0  0  0  0  0  0  0
   14.2452    1.9091   -1.7909 H   0  0  0  0  0  0  0  0  0  0  0  0
   14.6952    2.0721   -3.5031 H   0  0  0  0  0  0  0  0  0  0  0  0
   16.2321    2.5348   -2.1671 N   0  0  0  0  0  0  0  0  0  0  0  0
   16.1750    4.0055   -2.3279 C   0  0  0  0  0  0  0  0  0  0  0  0
   17.1849    4.3726   -2.5319 H   0  0  0  0  0  0  0  0  0  0  0  0
   15.5478    4.2780   -3.1821 H   0  0  0  0  0  0  0  0  0  0  0  0
   15.6542    4.6902   -1.0515 C   0  0  0  0  0  0  0  0  0  0  0  0
   15.7467    5.7756   -1.1558 H   0  0  0  0  0  0  0  0  0  0  0  0
   14.5930    4.4651   -0.9282 H   0  0  0  0  0  0  0  0  0  0  0  0
   16.3840    4.2561    0.1141 O   0  0  0  0  0  0  0  0  0  0  0  0
   16.3631    2.8265    0.2804 C   0  0  0  0  0  0  0  0  0  0  0  0
   15.3310    2.4943    0.4197 H   0  0  0  0  0  0  0  0  0  0  0  0
   16.9278    2.5403    1.1725 H   0  0  0  0  0  0  0  0  0  0  0  0
   16.9661    2.1430   -0.9522 C   0  0  0  0  0  0  0  0  0  0  0  0
   16.9222    1.0570   -0.8324 H   0  0  0  0  0  0  0  0  0  0  0  0
   18.0157    2.4430   -1.0519 H   0  0  0  0  0  0  0  0  0  0  0  0
   14.9777   -0.7016   -1.6439 C   0  0  0  0  0  0  0  0  0  0  0  0
   14.4167   -0.3659   -0.7758 H   0  0  0  0  0  0  0  0  0  0  0  0
   13.3595   -2.9788   -0.4956 C   0  0  0  0  0  0  0  0  0  0  0  0
   12.4671   -3.2085   -1.3131 O   0  0  0  0  0  0  0  0  0  0  0  0
   13.1050   -2.5720    0.7946 N   0  0  0  0  0  0  0  0  0  0  0  0
   11.7870   -2.2758    1.3542 C   0  0  0  0  0  0  0  0  0  0  0  0
   11.7196   -1.2197    1.6362 H   0  0  0  0  0  0  0  0  0  0  0  0
   11.5869   -2.8913    2.2383 H   0  0  0  0  0  0  0  0  0  0  0  0
   11.0025   -2.4791    0.6147 H   0  0  0  0  0  0  0  0  0  0  0  0
   14.3214   -2.4744    1.4336 C   0  0  0  0  0  0  0  0  0  0  0  0
   14.4945   -2.1763    2.7519 N   0  0  0  0  0  0  0  0  0  0  0  0
   15.4265   -2.2455    3.1543 H   0  0  0  0  0  0  0  0  0  0  0  0
   13.6777   -2.1145    3.3586 H   0  0  0  0  0  0  0  0  0  0  0  0
   15.3218   -2.7308    0.6511 N   0  0  0  0  0  4  0  0  0  0  0  0
   16.2797   -2.8422    0.9856 H   0  0  0  0  0  0  0  0  0  0  0  0
   14.3805   -5.3813   -1.7400 C   0  0  0  0  0  0  0  0  0  0  0  0
   13.4411   -4.9769   -2.1000 H   0  0  0  0  0  0  0  0  0  0  0  0
   14.6731   -6.7307   -1.9748 C   0  0  0  0  0  0  0  0  0  0  0  0
   13.9592   -7.3575   -2.5021 H   0  0  0  0  0  0  0  0  0  0  0  0
  1  2  1  0
  2  3  2  0
  3  4  1  0
  3  5  1  0
  5  6  1  0
  5  7  2  0
  7  8  1  0
  8  9  1  0
  9 10  2  0
 10 11  1  0
 10 12  1  0
 12 13  1  0
 12 14  2  0
 14 15  1  0
 14 16  1  0
 16 17  1  0
 17 18  1  0
 17 19  1  0
 17 20  1  0
 20 21  1  0
 21 22  1  0
 21 23  1  0
 21 24  1  0
 24 25  1  0
 24 26  1  0
 24 27  1  0
 27 28  1  0
 28 29  1  0
 28 30  1  0
 28 31  1  0
 31 32  1  0
 31 33  1  0
 16 34  2  0
 34 35  1  0
  8 36  1  0
 36 37  2  0
 36 38  1  0
 38 39  1  0
 39 40  1  0
 39 41  1  0
 39 42  1  0
 38 43  1  0
 43 44  1  0
 44 45  1  0
 44 46  1  0
 43 47  2  0
 47 48  1  0
  7 49  1  0
 49 50  1  0
 49 51  2  0
 51 52  1  0
 51  2  1  0
 47  8  1  0
 34  9  1  0
 31 20  1  0
M  CHG  1  47   1
M  END
>  <score>  (346) 
5.26507

$$$$

     RDKit          3D

 37 39  0  0  0  0  0  0  0  0999 V2000
   13.0197   -7.4023   -2.9191 H   0  0  0  0  0  0  0  0  0  0  0  0
   13.8228   -7.8537   -2.6295 O   0  0  0  0  0  0  0  0  0  0  0  0
   14.6326   -6.9681   -1.9705 C   0  0  0  0  0  0  0  0  0  0  0  0
   15.8398   -7.4390   -1.4765 C   0  0  0  0  0  0  0  0  0  0  0  0
   16.0921   -8.4794   -1.6243 H   0  0  0  0  0  0  0  0  0  0  0  0
   16.7153   -6.5850   -0.8080 C   0  0  0  0  0  0  0  0  0  0  0  0
   17.6598   -6.9560   -0.4252 H   0  0  0  0  0  0  0  0  0  0  0  0
   16.3751   -5.2462   -0.6153 C   0  0  0  0  0  0  0  0  0  0  0  0
   17.0619   -4.5994   -0.0738 H   0  0  0  0  0  0  0  0  0  0  0  0
   15.1542   -4.7296   -1.0841 C   0  0  0  0  0  0  0  0  0  0  0  0
   14.8099   -3.2575   -0.7875 C   0  0  0  0  0  0  0  0  0  0  0  0
   15.3851   -2.2482   -1.7811 C   0  0  0  0  0  0  0  0  0  0  0  0
   15.9430   -2.6406   -3.0103 C   0  0  0  0  0  0  0  0  0  0  0  0
   16.0048   -3.6928   -3.2640 H   0  0  0  0  0  0  0  0  0  0  0  0
   16.4234   -1.6907   -3.9226 C   0  0  0  0  0  0  0  0  0  0  0  0
   16.8577   -2.0040   -4.8647 H   0  0  0  0  0  0  0  0  0  0  0  0
   16.3464   -0.3276   -3.6304 C   0  0  0  0  0  0  0  0  0  0  0  0
   16.7085    0.4096   -4.3437 H   0  0  0  0  0  0  0  0  0  0  0  0
   15.7946    0.0780   -2.4147 C   0  0  0  0  0  0  0  0  0  0  0  0
   15.7348    1.1343   -2.1782 H   0  0  0  0  0  0  0  0  0  0  0  0
   15.3191   -0.8692   -1.5008 C   0  0  0  0  0  0  0  0  0  0  0  0
   14.8951   -0.5261   -0.5609 H   0  0  0  0  0  0  0  0  0  0  0  0
   13.2972   -3.0274   -0.6064 C   0  0  0  0  0  0  0  0  0  0  0  0
   12.4307   -3.0883   -1.4764 O   0  0  0  0  0  0  0  0  0  0  0  0
   13.0236   -2.6737    0.7011 N   0  0  0  0  0  0  0  0  0  0  0  0
   11.7176   -2.3130    1.2634 C   0  0  0  0  0  0  0  0  0  0  0  0
   11.5019   -2.9215    2.1474 H   0  0  0  0  0  0  0  0  0  0  0  0
   11.6960   -1.2587    1.5601 H   0  0  0  0  0  0  0  0  0  0  0  0
   10.9134   -2.4750    0.5369 H   0  0  0  0  0  0  0  0  0  0  0  0
   14.2254   -2.6290    1.3655 C   0  0  0  0  0  0  0  0  0  0  0  0
   14.3935   -2.3343    2.6895 N   0  0  0  0  0  0  0  0  0  0  0  0
   15.3292   -2.3558    3.0939 H   0  0  0  0  0  0  0  0  0  0  0  0
   13.5795   -2.1265    3.2666 H   0  0  0  0  0  0  0  0  0  0  0  0
   15.2222   -2.9056    0.5929 N   0  0  0  0  0  4  0  0  0  0  0  0
   16.1925   -2.9026    0.9062 H   0  0  0  0  0  0  0  0  0  0  0  0
   14.2852   -5.6150   -1.7817 C   0  0  0  0  0  0  0  0  0  0  0  0
   13.3389   -5.2540   -2.1737 H   0  0  0  0  0  0  0  0  0  0  0  0
  1  2  1  0
  2  3  1  0
  3  4  2  0
  4  5  1  0
  4  6  1  0
  6  7  1  0
  6  8  2  0
  8  9  1  0
  8 10  1  0
 10 11  1  0
 11 12  1  0
 12 13  2  0
 13 14  1  0
 13 15  1  0
 15 16  1  0
 15 17  2  0
 17 18  1  0
 17 19  1  0
 19 20  1  0
 19 21  2  0
 21 22  1  0
 11 23  1  0
 23 24  2  0
 23 25  1  0
 25 26  1  0
 26 27  1  0
 26 28  1  0
 26 29  1  0
 25 30  1  0
 30 31  1  0
 31 32  1  0
 31 33  1  0
 30 34  2  0
 34 35  1  0
 10 36  2  0
 36 37  1  0
 36  3  1  0
 34 11  1  0
 21 12  1  0
M  CHG  1  34   1
M  END
>  <score>  (347) 
5.26492

$$$$

     RDKit          3D

 49 52  0  0  0  0  0  0  0  0999 V2000
   14.1230  -11.6606    2.1541 H   0  0  0  0  0  0  0  0  0  0  0  0
   14.0196  -11.1444    1.2049 C   0  0  0  0  0  0  0  0  0  0  0  0
   14.3372  -11.7995    0.0762 N   0  0  0  0  0  0  0  0  0  0  0  0
   14.2614  -11.1423   -1.0881 C   0  0  0  0  0  0  0  0  0  0  0  0
   14.5262  -11.6676   -2.0038 H   0  0  0  0  0  0  0  0  0  0  0  0
   13.8561   -9.8128   -1.1553 C   0  0  0  0  0  0  0  0  0  0  0  0
   13.7603   -9.1981   -2.4446 C   0  0  0  0  0  0  0  0  0  0  0  0
   13.3720   -9.8590   -3.3922 O   0  0  0  0  0  0  0  0  0  0  0  0
   13.7588   -7.8362   -2.5981 N   0  0  0  0  0  0  0  0  0  0  0  0
   13.3057   -7.5169   -3.4418 H   0  0  0  0  0  0  0  0  0  0  0  0
   14.6144   -6.9641   -1.9239 C   0  0  0  0  0  0  0  0  0  0  0  0
   15.8326   -7.4451   -1.4407 C   0  0  0  0  0  0  0  0  0  0  0  0
   16.0689   -8.4924   -1.6038 H   0  0  0  0  0  0  0  0  0  0  0  0
   16.7254   -6.5877   -0.7913 C   0  0  0  0  0  0  0  0  0  0  0  0
   17.6775   -6.9672   -0.4238 H   0  0  0  0  0  0  0  0  0  0  0  0
   16.3784   -5.2439   -0.6107 C   0  0  0  0  0  0  0  0  0  0  0  0
   17.0593   -4.5896   -0.0788 H   0  0  0  0  0  0  0  0  0  0  0  0
   15.1611   -4.7226   -1.0763 C   0  0  0  0  0  0  0  0  0  0  0  0
   14.8116   -3.2598   -0.7765 C   0  0  0  0  0  0  0  0  0  0  0  0
   15.3837   -2.2552   -1.7795 C   0  0  0  0  0  0  0  0  0  0  0  0
   15.9422   -2.6538   -3.0087 C   0  0  0  0  0  0  0  0  0  0  0  0
   15.9968   -3.7106   -3.2500 H   0  0  0  0  0  0  0  0  0  0  0  0
   16.4221   -1.7016   -3.9234 C   0  0  0  0  0  0  0  0  0  0  0  0
   16.8515   -2.0125   -4.8714 H   0  0  0  0  0  0  0  0  0  0  0  0
   16.3438   -0.3393   -3.6229 C   0  0  0  0  0  0  0  0  0  0  0  0
   16.7164    0.3986   -4.3289 H   0  0  0  0  0  0  0  0  0  0  0  0
   15.7929    0.0728   -2.4065 C   0  0  0  0  0  0  0  0  0  0  0  0
   15.7332    1.1309   -2.1695 H   0  0  0  0  0  0  0  0  0  0  0  0
   15.3167   -0.8785   -1.4961 C   0  0  0  0  0  0  0  0  0  0  0  0
   14.8853   -0.5407   -0.5574 H   0  0  0  0  0  0  0  0  0  0  0  0
   13.2952   -3.0496   -0.5992 C   0  0  0  0  0  0  0  0  0  0  0  0
   12.4341   -3.1245   -1.4760 O   0  0  0  0  0  0  0  0  0  0  0  0
   13.0240   -2.6831    0.7072 N   0  0  0  0  0  0  0  0  0  0  0  0
   11.7226   -2.3147    1.2703 C   0  0  0  0  0  0  0  0  0  0  0  0
   11.5033   -2.9240    2.1583 H   0  0  0  0  0  0  0  0  0  0  0  0
   10.9197   -2.4772    0.5378 H   0  0  0  0  0  0  0  0  0  0  0  0
   11.7132   -1.2539    1.5577 H   0  0  0  0  0  0  0  0  0  0  0  0
   14.2358   -2.6303    1.3665 C   0  0  0  0  0  0  0  0  0  0  0  0
   14.4060   -2.3099    2.6821 N   0  0  0  0  0  0  0  0  0  0  0  0
   13.5913   -2.1230    3.2657 H   0  0  0  0  0  0  0  0  0  0  0  0
   15.3397   -2.3379    3.0864 H   0  0  0  0  0  0  0  0  0  0  0  0
   15.2384   -2.9261    0.6043 N   0  0  0  0  0  4  0  0  0  0  0  0
   16.2120   -2.9430    0.9224 H   0  0  0  0  0  0  0  0  0  0  0  0
   14.2926   -5.6045   -1.7662 C   0  0  0  0  0  0  0  0  0  0  0  0
   13.3440   -5.2598   -2.1633 H   0  0  0  0  0  0  0  0  0  0  0  0
   13.4689   -9.1299    0.0014 C   0  0  0  0  0  0  0  0  0  0  0  0
   13.0835   -8.1054   -0.0280 H   0  0  0  0  0  0  0  0  0  0  0  0
   13.5642   -9.8214    1.2014 C   0  0  0  0  0  0  0  0  0  0  0  0
   13.2928   -9.3496    2.1386 H   0  0  0  0  0  0  0  0  0  0  0  0
  1  2  1  0
  2  3  2  0
  3  4  1  0
  4  5  1  0
  4  6  2  0
  6  7  1  0
  7  8  2  0
  7  9  1  0
  9 10  1  0
  9 11  1  0
 11 12  2  0
 12 13  1  0
 12 14  1  0
 14 15  1  0
 14 16  2  0
 16 17  1  0
 16 18  1  0
 18 19  1  0
 19 20  1  0
 20 21  2  0
 21 22  1  0
 21 23  1  0
 23 24  1  0
 23 25  2  0
 25 26  1  0
 25 27  1  0
 27 28  1  0
 27 29  2  0
 29 30  1  0
 19 31  1  0
 31 32  2  0
 31 33  1  0
 33 34  1  0
 34 35  1  0
 34 36  1  0
 34 37  1  0
 33 38  1  0
 38 39  1  0
 39 40  1  0
 39 41  1  0
 38 42  2  0
 42 43  1  0
 18 44  2  0
 44 45  1  0
  6 46  1  0
 46 47  1  0
 46 48  2  0
 48 49  1  0
 48  2  1  0
 44 11  1  0
 42 19  1  0
 29 20  1  0
M  CHG  1  42   1
M  END
>  <score>  (348) 
5.25916

$$$$

     RDKit          3D

 44 46  0  0  0  0  0  0  0  0999 V2000
   16.1063   -8.4627   -1.6188 H   0  0  0  0  0  0  0  0  0  0  0  0
   15.8560   -7.4143   -1.4811 C   0  0  0  0  0  0  0  0  0  0  0  0
   16.7387   -6.5693   -0.8031 C   0  0  0  0  0  0  0  0  0  0  0  0
   17.6761   -6.9557   -0.4135 H   0  0  0  0  0  0  0  0  0  0  0  0
   16.4067   -5.2247   -0.6049 C   0  0  0  0  0  0  0  0  0  0  0  0
   17.0858   -4.5761   -0.0595 H   0  0  0  0  0  0  0  0  0  0  0  0
   15.1897   -4.6986   -1.0667 C   0  0  0  0  0  0  0  0  0  0  0  0
   14.8304   -3.2417   -0.7680 C   0  0  0  0  0  0  0  0  0  0  0  0
   15.3898   -2.2334   -1.7694 C   0  0  0  0  0  0  0  0  0  0  0  0
   15.9439   -2.6202   -3.0008 C   0  0  0  0  0  0  0  0  0  0  0  0
   15.9965   -3.6767   -3.2439 H   0  0  0  0  0  0  0  0  0  0  0  0
   16.4229   -1.6649   -3.9120 C   0  0  0  0  0  0  0  0  0  0  0  0
   16.8525   -1.9852   -4.8562 H   0  0  0  0  0  0  0  0  0  0  0  0
   16.3341   -0.2981   -3.6060 C   0  0  0  0  0  0  0  0  0  0  0  0
   16.6939    0.4670   -4.2855 H   0  0  0  0  0  0  0  0  0  0  0  0
   15.7518    0.0971   -2.4033 C   0  0  0  0  0  0  0  0  0  0  0  0
   15.5593    1.4234   -2.0407 N   0  0  0  0  0  0  0  0  0  0  0  0
   15.1821    1.5638   -1.1042 H   0  0  0  0  0  0  0  0  0  0  0  0
   16.1366    2.5826   -2.7387 C   0  0  0  0  0  0  0  0  0  0  0  0
   15.5651    3.4826   -2.4713 H   0  0  0  0  0  0  0  0  0  0  0  0
   16.1142    2.4679   -3.8280 H   0  0  0  0  0  0  0  0  0  0  0  0
   17.5850    2.7087   -2.2989 C   0  0  0  0  0  0  0  0  0  0  0  0
   18.0515    3.6296   -2.6559 H   0  0  0  0  0  0  0  0  0  0  0  0
   17.6330    2.7142   -1.2112 H   0  0  0  0  0  0  0  0  0  0  0  0
   18.1596    1.8685   -2.6968 H   0  0  0  0  0  0  0  0  0  0  0  0
   15.2980   -0.8567   -1.5011 C   0  0  0  0  0  0  0  0  0  0  0  0
   14.8677   -0.4949   -0.5745 H   0  0  0  0  0  0  0  0  0  0  0  0
   13.3137   -3.0259   -0.5992 C   0  0  0  0  0  0  0  0  0  0  0  0
   12.4503   -3.1215   -1.4704 O   0  0  0  0  0  0  0  0  0  0  0  0
   13.0349   -2.6747    0.7080 N   0  0  0  0  0  0  0  0  0  0  0  0
   11.7294   -2.3138    1.2696 C   0  0  0  0  0  0  0  0  0  0  0  0
   11.5073   -2.9187    2.1562 H   0  0  0  0  0  0  0  0  0  0  0  0
   10.9259   -2.4773    0.5422 H   0  0  0  0  0  0  0  0  0  0  0  0
   11.7122   -1.2571    1.5595 H   0  0  0  0  0  0  0  0  0  0  0  0
   14.2391   -2.6220    1.3746 C   0  0  0  0  0  0  0  0  0  0  0  0
   14.4095   -2.3031    2.6877 N   0  0  0  0  0  0  0  0  0  0  0  0
   15.3453   -2.3344    3.0912 H   0  0  0  0  0  0  0  0  0  0  0  0
   13.5949   -2.1220    3.2726 H   0  0  0  0  0  0  0  0  0  0  0  0
   15.2433   -2.9133    0.6147 N   0  0  0  0  0  4  0  0  0  0  0  0
   16.2100   -2.9522    0.9427 H   0  0  0  0  0  0  0  0  0  0  0  0
   14.3145   -5.5578   -1.7626 C   0  0  0  0  0  0  0  0  0  0  0  0
   13.3625   -5.1859   -2.1304 H   0  0  0  0  0  0  0  0  0  0  0  0
   14.6465   -6.9071   -1.9673 C   0  0  0  0  0  0  0  0  0  0  0  0
   13.9613   -7.5708   -2.4877 H   0  0  0  0  0  0  0  0  0  0  0  0
  1  2  1  0
  2  3  2  0
  3  4  1  0
  3  5  1  0
  5  6  1  0
  5  7  2  0
  7  8  1  0
  8  9  1  0
  9 10  2  0
 10 11  1  0
 10 12  1  0
 12 13  1  0
 12 14  2  0
 14 15  1  0
 14 16  1  0
 16 17  1  0
 17 18  1  0
 17 19  1  0
 19 20  1  0
 19 21  1  0
 19 22  1  0
 22 23  1  0
 22 24  1  0
 22 25  1  0
 16 26  2  0
 26 27  1  0
  8 28  1  0
 28 29  2  0
 28 30  1  0
 30 31  1  0
 31 32  1  0
 31 33  1  0
 31 34  1  0
 30 35  1  0
 35 36  1  0
 36 37  1  0
 36 38  1  0
 35 39  2  0
 39 40  1  0
  7 41  1  0
 41 42  1  0
 41 43  2  0
 43 44  1  0
 43  2  1  0
 39  8  1  0
 26  9  1  0
M  CHG  1  39   1
M  END
>  <score>  (349) 
5.25861

$$$$

     RDKit          3D

 49 51  0  0  0  0  0  0  0  0999 V2000
   16.1158   -8.4153   -1.6815 H   0  0  0  0  0  0  0  0  0  0  0  0
   15.8732   -7.3738   -1.4879 C   0  0  0  0  0  0  0  0  0  0  0  0
   16.7662   -6.5517   -0.7955 C   0  0  0  0  0  0  0  0  0  0  0  0
   17.7139   -6.9618   -0.4589 H   0  0  0  0  0  0  0  0  0  0  0  0
   16.4409   -5.2109   -0.5400 C   0  0  0  0  0  0  0  0  0  0  0  0
   17.1494   -4.5872   -0.0014 H   0  0  0  0  0  0  0  0  0  0  0  0
   15.2123   -4.6710   -0.9678 C   0  0  0  0  0  0  0  0  0  0  0  0
   14.8373   -3.2134   -0.6682 C   0  0  0  0  0  0  0  0  0  0  0  0
   15.4109   -2.2221   -1.6752 C   0  0  0  0  0  0  0  0  0  0  0  0
   15.9397   -2.6573   -2.9022 C   0  0  0  0  0  0  0  0  0  0  0  0
   15.9865   -3.7192   -3.1229 H   0  0  0  0  0  0  0  0  0  0  0  0
   16.4028   -1.7393   -3.8487 C   0  0  0  0  0  0  0  0  0  0  0  0
   16.8198   -2.0794   -4.7920 H   0  0  0  0  0  0  0  0  0  0  0  0
   16.3284   -0.3704   -3.5809 C   0  0  0  0  0  0  0  0  0  0  0  0
   16.6915    0.3548   -4.3010 H   0  0  0  0  0  0  0  0  0  0  0  0
   15.7963    0.0998   -2.3804 C   0  0  0  0  0  0  0  0  0  0  0  0
   15.7591    1.4630   -2.2128 O   0  0  0  0  0  0  0  0  0  0  0  0
   15.2147    1.9727   -0.9851 C   0  0  0  0  0  0  0  0  0  0  0  0
   15.7788    1.5793   -0.1329 H   0  0  0  0  0  0  0  0  0  0  0  0
   14.1747    1.6501   -0.8755 H   0  0  0  0  0  0  0  0  0  0  0  0
   15.2770    3.5114   -0.9738 C   0  0  0  0  0  0  0  0  0  0  0  0
   14.8573    3.8681   -0.0276 H   0  0  0  0  0  0  0  0  0  0  0  0
   16.7245    3.9989   -1.0758 C   0  0  0  0  0  0  0  0  0  0  0  0
   17.1815    3.6632   -2.0121 H   0  0  0  0  0  0  0  0  0  0  0  0
   16.7529    5.0898   -1.0487 H   0  0  0  0  0  0  0  0  0  0  0  0
   17.3166    3.6156   -0.2414 H   0  0  0  0  0  0  0  0  0  0  0  0
   14.4618    4.1140   -2.1249 C   0  0  0  0  0  0  0  0  0  0  0  0
   14.5061    5.2073   -2.0929 H   0  0  0  0  0  0  0  0  0  0  0  0
   14.8564    3.7810   -3.0900 H   0  0  0  0  0  0  0  0  0  0  0  0
   13.4144    3.8088   -2.0532 H   0  0  0  0  0  0  0  0  0  0  0  0
   15.3376   -0.8337   -1.4343 C   0  0  0  0  0  0  0  0  0  0  0  0
   14.9146   -0.4692   -0.5040 H   0  0  0  0  0  0  0  0  0  0  0  0
   13.3141   -2.9833   -0.5841 C   0  0  0  0  0  0  0  0  0  0  0  0
   12.4977   -3.2217   -1.4719 O   0  0  0  0  0  0  0  0  0  0  0  0
   12.9638   -2.5148    0.6663 N   0  0  0  0  0  0  0  0  0  0  0  0
   11.6097   -2.2674    1.1914 C   0  0  0  0  0  0  0  0  0  0  0  0
   10.8345   -2.4295    0.4316 H   0  0  0  0  0  0  0  0  0  0  0  0
   11.5065   -1.2369    1.5533 H   0  0  0  0  0  0  0  0  0  0  0  0
   11.4035   -2.9423    2.0285 H   0  0  0  0  0  0  0  0  0  0  0  0
   14.1280   -2.4846    1.3942 C   0  0  0  0  0  0  0  0  0  0  0  0
   14.2542   -2.1121    2.6960 N   0  0  0  0  0  0  0  0  0  0  0  0
   15.1240   -2.3413    3.1782 H   0  0  0  0  0  0  0  0  0  0  0  0
   13.4197   -1.9193    3.2448 H   0  0  0  0  0  0  0  0  0  0  0  0
   15.1719   -2.8579    0.7245 N   0  0  0  0  0  4  0  0  0  0  0  0
   16.1244   -2.8179    1.0872 H   0  0  0  0  0  0  0  0  0  0  0  0
   14.3420   -5.5056   -1.6970 C   0  0  0  0  0  0  0  0  0  0  0  0
   13.4013   -5.1148   -2.0724 H   0  0  0  0  0  0  0  0  0  0  0  0
   14.6667   -6.8450   -1.9496 C   0  0  0  0  0  0  0  0  0  0  0  0
   13.9832   -7.4752   -2.5103 H   0  0  0  0  0  0  0  0  0  0  0  0
  1  2  1  0
  2  3  2  0
  3  4  1  0
  3  5  1  0
  5  6  1  0
  5  7  2  0
  7  8  1  0
  8  9  1  0
  9 10  2  0
 10 11  1  0
 10 12  1  0
 12 13  1  0
 12 14  2  0
 14 15  1  0
 14 16  1  0
 16 17  1  0
 17 18  1  0
 18 19  1  0
 18 20  1  0
 18 21  1  0
 21 22  1  0
 21 23  1  0
 23 24  1  0
 23 25  1  0
 23 26  1  0
 21 27  1  0
 27 28  1  0
 27 29  1  0
 27 30  1  0
 16 31  2  0
 31 32  1  0
  8 33  1  0
 33 34  2  0
 33 35  1  0
 35 36  1  0
 36 37  1  0
 36 38  1  0
 36 39  1  0
 35 40  1  0
 40 41  1  0
 41 42  1  0
 41 43  1  0
 40 44  2  0
 44 45  1  0
  7 46  1  0
 46 47  1  0
 46 48  2  0
 48 49  1  0
 48  2  1  0
 44  8  1  0
 31  9  1  0
M  CHG  1  44   1
M  END
>  <score>  (350) 
5.25776

$$$$

     RDKit          3D

 46 49  0  0  0  0  0  0  0  0999 V2000
    8.3735   -8.3368   -2.2776 H   0  0  0  0  0  0  0  0  0  0  0  0
    9.4545   -8.2974   -2.1836 C   0  0  0  0  0  0  0  0  0  0  0  0
   10.1598   -9.2752   -2.7691 N   0  0  0  0  0  0  0  0  0  0  0  0
   11.5014   -9.2173   -2.6931 C   0  0  0  0  0  0  0  0  0  0  0  0
   12.0857   -9.9622   -3.2287 H   0  0  0  0  0  0  0  0  0  0  0  0
   12.1990   -8.1795   -2.0410 C   0  0  0  0  0  0  0  0  0  0  0  0
   13.5703   -8.2322   -2.1152 O   0  0  0  0  0  0  0  0  0  0  0  0
   14.3942   -7.2264   -1.6702 C   0  0  0  0  0  0  0  0  0  0  0  0
   15.6817   -7.6515   -1.3375 C   0  0  0  0  0  0  0  0  0  0  0  0
   15.9165   -8.7089   -1.4368 H   0  0  0  0  0  0  0  0  0  0  0  0
   16.6407   -6.7518   -0.8842 C   0  0  0  0  0  0  0  0  0  0  0  0
   17.6311   -7.1076   -0.6072 H   0  0  0  0  0  0  0  0  0  0  0  0
   16.3077   -5.4003   -0.7641 C   0  0  0  0  0  0  0  0  0  0  0  0
   17.0548   -4.7102   -0.3891 H   0  0  0  0  0  0  0  0  0  0  0  0
   15.0218   -4.9277   -1.0827 C   0  0  0  0  0  0  0  0  0  0  0  0
   14.6945   -3.4566   -0.8173 C   0  0  0  0  0  0  0  0  0  0  0  0
   15.2883   -2.4479   -1.7995 C   0  0  0  0  0  0  0  0  0  0  0  0
   15.8752   -2.8143   -3.0249 C   0  0  0  0  0  0  0  0  0  0  0  0
   15.9384   -3.8627   -3.3031 H   0  0  0  0  0  0  0  0  0  0  0  0
   16.3887   -1.8324   -3.8870 C   0  0  0  0  0  0  0  0  0  0  0  0
   16.8454   -2.1172   -4.8278 H   0  0  0  0  0  0  0  0  0  0  0  0
   16.3217   -0.4796   -3.5418 C   0  0  0  0  0  0  0  0  0  0  0  0
   16.7175    0.2749   -4.2158 H   0  0  0  0  0  0  0  0  0  0  0  0
   15.7435   -0.1049   -2.3288 C   0  0  0  0  0  0  0  0  0  0  0  0
   15.6985    0.9420   -2.0481 H   0  0  0  0  0  0  0  0  0  0  0  0
   15.2285   -1.0797   -1.4721 C   0  0  0  0  0  0  0  0  0  0  0  0
   14.7862   -0.7716   -0.5284 H   0  0  0  0  0  0  0  0  0  0  0  0
   13.1900   -3.1857   -0.6001 C   0  0  0  0  0  0  0  0  0  0  0  0
   12.2859   -3.2762   -1.4304 O   0  0  0  0  0  0  0  0  0  0  0  0
   12.9825   -2.7473    0.6939 N   0  0  0  0  0  0  0  0  0  0  0  0
   11.7227   -2.3056    1.2969 C   0  0  0  0  0  0  0  0  0  0  0  0
   11.5078   -2.8795    2.2046 H   0  0  0  0  0  0  0  0  0  0  0  0
   10.8831   -2.4401    0.6073 H   0  0  0  0  0  0  0  0  0  0  0  0
   11.7704   -1.2452    1.5658 H   0  0  0  0  0  0  0  0  0  0  0  0
   14.2148   -2.7028    1.3055 C   0  0  0  0  0  0  0  0  0  0  0  0
   14.4628   -2.2548    2.5679 N   0  0  0  0  0  0  0  0  0  0  0  0
   13.6745   -2.1020    3.1924 H   0  0  0  0  0  0  0  0  0  0  0  0
   15.3961   -2.3920    2.9536 H   0  0  0  0  0  0  0  0  0  0  0  0
   15.1643   -3.1264    0.5439 N   0  0  0  0  0  4  0  0  0  0  0  0
   16.1484   -3.1437    0.8190 H   0  0  0  0  0  0  0  0  0  0  0  0
   14.0686   -5.8546   -1.5590 C   0  0  0  0  0  0  0  0  0  0  0  0
   13.0857   -5.5004   -1.8501 H   0  0  0  0  0  0  0  0  0  0  0  0
   11.4533   -7.1646   -1.4197 C   0  0  0  0  0  0  0  0  0  0  0  0
   11.9393   -6.3511   -0.8845 H   0  0  0  0  0  0  0  0  0  0  0  0
   10.0578   -7.2281   -1.5043 C   0  0  0  0  0  0  0  0  0  0  0  0
    9.4326   -6.4558   -1.0622 H   0  0  0  0  0  0  0  0  0  0  0  0
  1  2  1  0
  2  3  2  0
  3  4  1  0
  4  5  1  0
  4  6  2  0
  6  7  1  0
  7  8  1  0
  8  9  2  0
  9 10  1  0
  9 11  1  0
 11 12  1  0
 11 13  2  0
 13 14  1  0
 13 15  1  0
 15 16  1  0
 16 17  1  0
 17 18  2  0
 18 19  1  0
 18 20  1  0
 20 21  1  0
 20 22  2  0
 22 23  1  0
 22 24  1  0
 24 25  1  0
 24 26  2  0
 26 27  1  0
 16 28  1  0
 28 29  2  0
 28 30  1  0
 30 31  1  0
 31 32  1  0
 31 33  1  0
 31 34  1  0
 30 35  1  0
 35 36  1  0
 36 37  1  0
 36 38  1  0
 35 39  2  0
 39 40  1  0
 15 41  2  0
 41 42  1  0
  6 43  1  0
 43 44  1  0
 43 45  2  0
 45 46  1  0
 45  2  1  0
 41  8  1  0
 39 16  1  0
 26 17  1  0
M  CHG  1  39   1
M  END
>  <score>  (351) 
5.25691

$$$$

     RDKit          3D

 42 44  0  0  0  0  0  0  0  0999 V2000
   16.1023   -8.4626   -1.6154 H   0  0  0  0  0  0  0  0  0  0  0  0
   15.8590   -7.4115   -1.4825 C   0  0  0  0  0  0  0  0  0  0  0  0
   16.7387   -6.5643   -0.8040 C   0  0  0  0  0  0  0  0  0  0  0  0
   17.6711   -6.9581   -0.4108 H   0  0  0  0  0  0  0  0  0  0  0  0
   16.4051   -5.2184   -0.6088 C   0  0  0  0  0  0  0  0  0  0  0  0
   17.0800   -4.5709   -0.0562 H   0  0  0  0  0  0  0  0  0  0  0  0
   15.1912   -4.6938   -1.0801 C   0  0  0  0  0  0  0  0  0  0  0  0
   14.8233   -3.2369   -0.7762 C   0  0  0  0  0  0  0  0  0  0  0  0
   15.3762   -2.2239   -1.7827 C   0  0  0  0  0  0  0  0  0  0  0  0
   15.9347   -2.6063   -3.0107 C   0  0  0  0  0  0  0  0  0  0  0  0
   15.9948   -3.6665   -3.2378 H   0  0  0  0  0  0  0  0  0  0  0  0
   16.4076   -1.6504   -3.9265 C   0  0  0  0  0  0  0  0  0  0  0  0
   16.8513   -1.9791   -4.8632 H   0  0  0  0  0  0  0  0  0  0  0  0
   16.3265   -0.2830   -3.6122 C   0  0  0  0  0  0  0  0  0  0  0  0
   16.7000    0.4698   -4.3027 H   0  0  0  0  0  0  0  0  0  0  0  0
   15.8007    0.1205   -2.3740 C   0  0  0  0  0  0  0  0  0  0  0  0
   15.7650    1.4242   -1.9451 O   0  0  0  0  0  0  0  0  0  0  0  0
   15.6222    2.3814   -2.8859 C   0  0  0  0  0  0  0  0  0  0  0  0
   15.3137    2.1904   -4.0558 O   0  0  0  0  0  0  0  0  0  0  0  0
   15.8240    3.8235   -2.4316 C   0  0  0  0  0  0  0  0  0  0  0  0
   14.8626    4.2539   -2.1296 H   0  0  0  0  0  0  0  0  0  0  0  0
   16.2460    4.4199   -3.2455 H   0  0  0  0  0  0  0  0  0  0  0  0
   16.5172    3.8504   -1.5815 H   0  0  0  0  0  0  0  0  0  0  0  0
   15.3184   -0.8464   -1.4924 C   0  0  0  0  0  0  0  0  0  0  0  0
   14.8970   -0.4877   -0.5601 H   0  0  0  0  0  0  0  0  0  0  0  0
   13.3039   -3.0308   -0.5974 C   0  0  0  0  0  0  0  0  0  0  0  0
   12.4421   -3.1255   -1.4690 O   0  0  0  0  0  0  0  0  0  0  0  0
   13.0263   -2.6812    0.7111 N   0  0  0  0  0  0  0  0  0  0  0  0
   11.7232   -2.3141    1.2734 C   0  0  0  0  0  0  0  0  0  0  0  0
   11.7136   -1.2526    1.5590 H   0  0  0  0  0  0  0  0  0  0  0  0
   10.9195   -2.4773    0.5409 H   0  0  0  0  0  0  0  0  0  0  0  0
   11.5036   -2.9225    2.1624 H   0  0  0  0  0  0  0  0  0  0  0  0
   14.2413   -2.6204    1.3665 C   0  0  0  0  0  0  0  0  0  0  0  0
   14.4084   -2.3073    2.6812 N   0  0  0  0  0  0  0  0  0  0  0  0
   15.3441   -2.3345    3.0831 H   0  0  0  0  0  0  0  0  0  0  0  0
   13.5945   -2.1236    3.2649 H   0  0  0  0  0  0  0  0  0  0  0  0
   15.2477   -2.8996    0.6034 N   0  0  0  0  0  4  0  0  0  0  0  0
   16.2158   -2.9522    0.9365 H   0  0  0  0  0  0  0  0  0  0  0  0
   14.3173   -5.5578   -1.7700 C   0  0  0  0  0  0  0  0  0  0  0  0
   13.3614   -5.1847   -2.1241 H   0  0  0  0  0  0  0  0  0  0  0  0
   14.6487   -6.9086   -1.9674 C   0  0  0  0  0  0  0  0  0  0  0  0
   13.9616   -7.5730   -2.4845 H   0  0  0  0  0  0  0  0  0  0  0  0
  1  2  1  0
  2  3  2  0
  3  4  1  0
  3  5  1  0
  5  6  1  0
  5  7  2  0
  7  8  1  0
  8  9  1  0
  9 10  2  0
 10 11  1  0
 10 12  1  0
 12 13  1  0
 12 14  2  0
 14 15  1  0
 14 16  1  0
 16 17  1  0
 17 18  1  0
 18 19  2  0
 18 20  1  0
 20 21  1  0
 20 22  1  0
 20 23  1  0
 16 24  2  0
 24 25  1  0
  8 26  1  0
 26 27  2  0
 26 28  1  0
 28 29  1  0
 29 30  1  0
 29 31  1  0
 29 32  1  0
 28 33  1  0
 33 34  1  0
 34 35  1  0
 34 36  1  0
 33 37  2  0
 37 38  1  0
  7 39  1  0
 39 40  1  0
 39 41  2  0
 41 42  1  0
 41  2  1  0
 37  8  1  0
 24  9  1  0
M  CHG  1  37   1
M  END
>  <score>  (352) 
5.25304

$$$$

     RDKit          3D

 46 49  0  0  0  0  0  0  0  0999 V2000
   11.6425   -6.4466   -1.4450 H   0  0  0  0  0  0  0  0  0  0  0  0
   11.8646   -7.4169   -1.8824 C   0  0  0  0  0  0  0  0  0  0  0  0
   10.8522   -8.1988   -2.2342 N   0  0  0  0  0  0  0  0  0  0  0  0
   11.1999   -9.3285   -2.7871 C   0  0  0  0  0  0  0  0  0  0  0  0
   10.1861  -10.1002   -3.0727 N   0  0  0  0  0  0  0  0  0  0  0  0
    9.4356   -9.8608   -2.4484 H   0  0  0  0  0  0  0  0  0  0  0  0
   10.5099  -11.0519   -3.1049 H   0  0  0  0  0  0  0  0  0  0  0  0
   12.3850   -9.8531   -2.9428 N   0  0  0  0  0  0  0  0  0  0  0  0
   13.3916   -9.0696   -2.5764 C   0  0  0  0  0  0  0  0  0  0  0  0
   14.4094   -9.4216   -2.7042 H   0  0  0  0  0  0  0  0  0  0  0  0
   13.1890   -7.8073   -2.0432 C   0  0  0  0  0  0  0  0  0  0  0  0
   14.3138   -6.9422   -1.6444 C   0  0  0  0  0  0  0  0  0  0  0  0
   15.5988   -7.4526   -1.3881 C   0  0  0  0  0  0  0  0  0  0  0  0
   15.7884   -8.5153   -1.4945 H   0  0  0  0  0  0  0  0  0  0  0  0
   16.6369   -6.6087   -0.9567 C   0  0  0  0  0  0  0  0  0  0  0  0
   17.6196   -7.0013   -0.7030 H   0  0  0  0  0  0  0  0  0  0  0  0
   16.3968   -5.2434   -0.7877 C   0  0  0  0  0  0  0  0  0  0  0  0
   17.1811   -4.5920   -0.4065 H   0  0  0  0  0  0  0  0  0  0  0  0
   15.1276   -4.7090   -1.0445 C   0  0  0  0  0  0  0  0  0  0  0  0
   14.8502   -3.2472   -0.7396 C   0  0  0  0  0  0  0  0  0  0  0  0
   15.4121   -2.2634   -1.7598 C   0  0  0  0  0  0  0  0  0  0  0  0
   15.9475   -2.6764   -2.9936 C   0  0  0  0  0  0  0  0  0  0  0  0
   15.9867   -3.7321   -3.2448 H   0  0  0  0  0  0  0  0  0  0  0  0
   16.4299   -1.7350   -3.9138 C   0  0  0  0  0  0  0  0  0  0  0  0
   16.8475   -2.0549   -4.8617 H   0  0  0  0  0  0  0  0  0  0  0  0
   16.3746   -0.3696   -3.6210 C   0  0  0  0  0  0  0  0  0  0  0  0
   16.7484    0.3604   -4.3342 H   0  0  0  0  0  0  0  0  0  0  0  0
   15.8230    0.0554   -2.4106 C   0  0  0  0  0  0  0  0  0  0  0  0
   15.7635    1.1146   -2.1784 H   0  0  0  0  0  0  0  0  0  0  0  0
   15.3429   -0.8842   -1.4923 C   0  0  0  0  0  0  0  0  0  0  0  0
   14.9071   -0.5418   -0.5578 H   0  0  0  0  0  0  0  0  0  0  0  0
   13.3534   -2.9626   -0.5021 C   0  0  0  0  0  0  0  0  0  0  0  0
   12.4290   -3.0421   -1.3122 O   0  0  0  0  0  0  0  0  0  0  0  0
   13.1766   -2.5937    0.8135 N   0  0  0  0  0  0  0  0  0  0  0  0
   11.9075   -2.2752    1.4531 C   0  0  0  0  0  0  0  0  0  0  0  0
   11.7103   -1.1989    1.3697 H   0  0  0  0  0  0  0  0  0  0  0  0
   11.9200   -2.5518    2.5137 H   0  0  0  0  0  0  0  0  0  0  0  0
   11.0933   -2.8321    0.9719 H   0  0  0  0  0  0  0  0  0  0  0  0
   14.3990   -2.6615    1.4390 C   0  0  0  0  0  0  0  0  0  0  0  0
   14.5942   -2.4630    2.7704 N   0  0  0  0  0  0  0  0  0  0  0  0
   15.5477   -2.4581    3.1137 H   0  0  0  0  0  0  0  0  0  0  0  0
   13.8968   -1.9290    3.2798 H   0  0  0  0  0  0  0  0  0  0  0  0
   15.3527   -2.9736    0.6244 N   0  0  0  0  0  4  0  0  0  0  0  0
   16.2960   -3.2186    0.9367 H   0  0  0  0  0  0  0  0  0  0  0  0
   14.1052   -5.5684   -1.4853 C   0  0  0  0  0  0  0  0  0  0  0  0
   13.1157   -5.1773   -1.6861 H   0  0  0  0  0  0  0  0  0  0  0  0
  1  2  1  0
  2  3  2  0
  3  4  1  0
  4  5  1  0
  5  6  1  0
  5  7  1  0
  4  8  2  0
  8  9  1  0
  9 10  1  0
  9 11  2  0
 11 12  1  0
 12 13  2  0
 13 14  1  0
 13 15  1  0
 15 16  1  0
 15 17  2  0
 17 18  1  0
 17 19  1  0
 19 20  1  0
 20 21  1  0
 21 22  2  0
 22 23  1  0
 22 24  1  0
 24 25  1  0
 24 26  2  0
 26 27  1  0
 26 28  1  0
 28 29  1  0
 28 30  2  0
 30 31  1  0
 20 32  1  0
 32 33  2  0
 32 34  1  0
 34 35  1  0
 35 36  1  0
 35 37  1  0
 35 38  1  0
 34 39  1  0
 39 40  1  0
 40 41  1  0
 40 42  1  0
 39 43  2  0
 43 44  1  0
 19 45  2  0
 45 46  1  0
 11  2  1  0
 45 12  1  0
 43 20  1  0
 30 21  1  0
M  CHG  1  43   1
M  END
>  <score>  (353) 
5.24681

$$$$

     RDKit          3D

 37 39  0  0  0  0  0  0  0  0999 V2000
   14.1058   -7.7800   -4.0394 H   0  0  0  0  0  0  0  0  0  0  0  0
   13.6584   -8.0833   -2.7976 S   0  0  0  0  0  0  0  0  0  0  0  0
   14.6662   -6.9412   -1.9486 C   0  0  0  0  0  0  0  0  0  0  0  0
   15.8657   -7.4377   -1.4585 C   0  0  0  0  0  0  0  0  0  0  0  0
   16.1202   -8.4835   -1.6130 H   0  0  0  0  0  0  0  0  0  0  0  0
   16.7317   -6.5828   -0.7929 C   0  0  0  0  0  0  0  0  0  0  0  0
   17.6769   -6.9549   -0.4184 H   0  0  0  0  0  0  0  0  0  0  0  0
   16.3859   -5.2418   -0.6085 C   0  0  0  0  0  0  0  0  0  0  0  0
   17.0680   -4.5948   -0.0695 H   0  0  0  0  0  0  0  0  0  0  0  0
   15.1661   -4.7182   -1.0705 C   0  0  0  0  0  0  0  0  0  0  0  0
   14.8085   -3.2521   -0.7843 C   0  0  0  0  0  0  0  0  0  0  0  0
   15.3867   -2.2470   -1.7812 C   0  0  0  0  0  0  0  0  0  0  0  0
   15.9429   -2.6402   -3.0113 C   0  0  0  0  0  0  0  0  0  0  0  0
   16.0059   -3.6922   -3.2670 H   0  0  0  0  0  0  0  0  0  0  0  0
   16.4230   -1.6888   -3.9225 C   0  0  0  0  0  0  0  0  0  0  0  0
   16.8585   -2.0036   -4.8639 H   0  0  0  0  0  0  0  0  0  0  0  0
   16.3475   -0.3265   -3.6301 C   0  0  0  0  0  0  0  0  0  0  0  0
   16.7067    0.4101   -4.3452 H   0  0  0  0  0  0  0  0  0  0  0  0
   15.7950    0.0792   -2.4149 C   0  0  0  0  0  0  0  0  0  0  0  0
   15.7347    1.1354   -2.1788 H   0  0  0  0  0  0  0  0  0  0  0  0
   15.3183   -0.8689   -1.5023 C   0  0  0  0  0  0  0  0  0  0  0  0
   14.8967   -0.5249   -0.5614 H   0  0  0  0  0  0  0  0  0  0  0  0
   13.2953   -3.0229   -0.6088 C   0  0  0  0  0  0  0  0  0  0  0  0
   12.4280   -3.0815   -1.4757 O   0  0  0  0  0  0  0  0  0  0  0  0
   13.0224   -2.6711    0.6999 N   0  0  0  0  0  0  0  0  0  0  0  0
   11.7187   -2.3132    1.2615 C   0  0  0  0  0  0  0  0  0  0  0  0
   11.5012   -2.9191    2.1445 H   0  0  0  0  0  0  0  0  0  0  0  0
   11.6931   -1.2618    1.5600 H   0  0  0  0  0  0  0  0  0  0  0  0
   10.9153   -2.4744    0.5400 H   0  0  0  0  0  0  0  0  0  0  0  0
   14.2222   -2.6301    1.3668 C   0  0  0  0  0  0  0  0  0  0  0  0
   14.3935   -2.3371    2.6893 N   0  0  0  0  0  0  0  0  0  0  0  0
   15.3260   -2.3572    3.0955 H   0  0  0  0  0  0  0  0  0  0  0  0
   13.5799   -2.1271    3.2659 H   0  0  0  0  0  0  0  0  0  0  0  0
   15.2198   -2.9060    0.5920 N   0  0  0  0  0  4  0  0  0  0  0  0
   16.1891   -2.8992    0.8998 H   0  0  0  0  0  0  0  0  0  0  0  0
   14.3035   -5.5949   -1.7644 C   0  0  0  0  0  0  0  0  0  0  0  0
   13.3547   -5.2543   -2.1705 H   0  0  0  0  0  0  0  0  0  0  0  0
  1  2  1  0
  2  3  1  0
  3  4  2  0
  4  5  1  0
  4  6  1  0
  6  7  1  0
  6  8  2  0
  8  9  1  0
  8 10  1  0
 10 11  1  0
 11 12  1  0
 12 13  2  0
 13 14  1  0
 13 15  1  0
 15 16  1  0
 15 17  2  0
 17 18  1  0
 17 19  1  0
 19 20  1  0
 19 21  2  0
 21 22  1  0
 11 23  1  0
 23 24  2  0
 23 25  1  0
 25 26  1  0
 26 27  1  0
 26 28  1  0
 26 29  1  0
 25 30  1  0
 30 31  1  0
 31 32  1  0
 31 33  1  0
 30 34  2  0
 34 35  1  0
 10 36  2  0
 36 37  1  0
 36  3  1  0
 34 11  1  0
 21 12  1  0
M  CHG  1  34   1
M  END
>  <score>  (354) 
5.24551

$$$$

     RDKit          3D

 43 45  0  0  0  0  0  0  0  0999 V2000
   16.1078   -8.4731   -1.6140 H   0  0  0  0  0  0  0  0  0  0  0  0
   15.8575   -7.4237   -1.4795 C   0  0  0  0  0  0  0  0  0  0  0  0
   16.7372   -6.5714   -0.8070 C   0  0  0  0  0  0  0  0  0  0  0  0
   17.6710   -6.9597   -0.4116 H   0  0  0  0  0  0  0  0  0  0  0  0
   16.4023   -5.2265   -0.6092 C   0  0  0  0  0  0  0  0  0  0  0  0
   17.0719   -4.5736   -0.0557 H   0  0  0  0  0  0  0  0  0  0  0  0
   15.1879   -4.7030   -1.0779 C   0  0  0  0  0  0  0  0  0  0  0  0
   14.8259   -3.2440   -0.7716 C   0  0  0  0  0  0  0  0  0  0  0  0
   15.3761   -2.2191   -1.7603 C   0  0  0  0  0  0  0  0  0  0  0  0
   15.9277   -2.6206   -2.9866 C   0  0  0  0  0  0  0  0  0  0  0  0
   15.9888   -3.6755   -3.2342 H   0  0  0  0  0  0  0  0  0  0  0  0
   16.4086   -1.6792   -3.8992 C   0  0  0  0  0  0  0  0  0  0  0  0
   16.8403   -1.9893   -4.8451 H   0  0  0  0  0  0  0  0  0  0  0  0
   16.3322   -0.3200   -3.5971 C   0  0  0  0  0  0  0  0  0  0  0  0
   16.7012    0.4262   -4.2905 H   0  0  0  0  0  0  0  0  0  0  0  0
   15.7858    0.1218   -2.3949 C   0  0  0  0  0  0  0  0  0  0  0  0
   15.7609    1.4846   -2.2045 O   0  0  0  0  0  0  0  0  0  0  0  0
   15.2219    2.0026   -0.9818 C   0  0  0  0  0  0  0  0  0  0  0  0
   14.1800    1.6899   -0.8663 H   0  0  0  0  0  0  0  0  0  0  0  0
   15.7813    1.6144   -0.1255 H   0  0  0  0  0  0  0  0  0  0  0  0
   15.3145    3.5373   -1.0285 C   0  0  0  0  0  0  0  0  0  0  0  0
   14.9091    3.9743   -0.1097 H   0  0  0  0  0  0  0  0  0  0  0  0
   14.7428    3.9298   -1.8795 H   0  0  0  0  0  0  0  0  0  0  0  0
   16.3602    3.8556   -1.1311 H   0  0  0  0  0  0  0  0  0  0  0  0
   15.3076   -0.8335   -1.4804 C   0  0  0  0  0  0  0  0  0  0  0  0
   14.8824   -0.4815   -0.5466 H   0  0  0  0  0  0  0  0  0  0  0  0
   13.3085   -3.0359   -0.5949 C   0  0  0  0  0  0  0  0  0  0  0  0
   12.4493   -3.1061   -1.4690 O   0  0  0  0  0  0  0  0  0  0  0  0
   13.0268   -2.6802    0.7091 N   0  0  0  0  0  0  0  0  0  0  0  0
   11.7208   -2.3136    1.2678 C   0  0  0  0  0  0  0  0  0  0  0  0
   11.5068   -2.9213    2.1564 H   0  0  0  0  0  0  0  0  0  0  0  0
   11.7058   -1.2547    1.5589 H   0  0  0  0  0  0  0  0  0  0  0  0
   10.9130   -2.4761    0.5390 H   0  0  0  0  0  0  0  0  0  0  0  0
   14.2356   -2.6264    1.3686 C   0  0  0  0  0  0  0  0  0  0  0  0
   14.4023   -2.3112    2.6793 N   0  0  0  0  0  0  0  0  0  0  0  0
   13.5890   -2.1267    3.2605 H   0  0  0  0  0  0  0  0  0  0  0  0
   15.3431   -2.3445    3.0832 H   0  0  0  0  0  0  0  0  0  0  0  0
   15.2353   -2.9127    0.6073 N   0  0  0  0  0  4  0  0  0  0  0  0
   16.2036   -2.9502    0.9394 H   0  0  0  0  0  0  0  0  0  0  0  0
   14.3139   -5.5693   -1.7673 C   0  0  0  0  0  0  0  0  0  0  0  0
   13.3592   -5.1992   -2.1301 H   0  0  0  0  0  0  0  0  0  0  0  0
   14.6464   -6.9207   -1.9648 C   0  0  0  0  0  0  0  0  0  0  0  0
   13.9660   -7.5877   -2.4872 H   0  0  0  0  0  0  0  0  0  0  0  0
  1  2  1  0
  2  3  2  0
  3  4  1  0
  3  5  1  0
  5  6  1  0
  5  7  2  0
  7  8  1  0
  8  9  1  0
  9 10  2  0
 10 11  1  0
 10 12  1  0
 12 13  1  0
 12 14  2  0
 14 15  1  0
 14 16  1  0
 16 17  1  0
 17 18  1  0
 18 19  1  0
 18 20  1  0
 18 21  1  0
 21 22  1  0
 21 23  1  0
 21 24  1  0
 16 25  2  0
 25 26  1  0
  8 27  1  0
 27 28  2  0
 27 29  1  0
 29 30  1  0
 30 31  1  0
 30 32  1  0
 30 33  1  0
 29 34  1  0
 34 35  1  0
 35 36  1  0
 35 37  1  0
 34 38  2  0
 38 39  1  0
  7 40  1  0
 40 41  1  0
 40 42  2  0
 42 43  1  0
 42  2  1  0
 38  8  1  0
 25  9  1  0
M  CHG  1  38   1
M  END
>  <score>  (355) 
5.24396

$$$$

     RDKit          3D

 44 47  0  0  0  0  0  0  0  0999 V2000
   10.2066   -9.3588   -1.4868 H   0  0  0  0  0  0  0  0  0  0  0  0
   11.2182   -9.2879   -1.8730 C   0  0  0  0  0  0  0  0  0  0  0  0
   12.0035   -8.2549   -1.5536 N   0  0  0  0  0  0  0  0  0  0  0  0
   13.2544   -8.2277   -2.0457 C   0  0  0  0  0  0  0  0  0  0  0  0
   14.2435   -7.2218   -1.5953 C   0  0  0  0  0  0  0  0  0  0  0  0
   15.5441   -7.6686   -1.2828 C   0  0  0  0  0  0  0  0  0  0  0  0
   15.8116   -8.7201   -1.3605 H   0  0  0  0  0  0  0  0  0  0  0  0
   16.5235   -6.7770   -0.8536 C   0  0  0  0  0  0  0  0  0  0  0  0
   17.5181   -7.1326   -0.6007 H   0  0  0  0  0  0  0  0  0  0  0  0
   16.2481   -5.4155   -0.7593 C   0  0  0  0  0  0  0  0  0  0  0  0
   17.0349   -4.7302   -0.4554 H   0  0  0  0  0  0  0  0  0  0  0  0
   14.9594   -4.9250   -1.0314 C   0  0  0  0  0  0  0  0  0  0  0  0
   14.6792   -3.4361   -0.7907 C   0  0  0  0  0  0  0  0  0  0  0  0
   15.2936   -2.4363   -1.7791 C   0  0  0  0  0  0  0  0  0  0  0  0
   15.8792   -2.8058   -3.0049 C   0  0  0  0  0  0  0  0  0  0  0  0
   15.9396   -3.8542   -3.2788 H   0  0  0  0  0  0  0  0  0  0  0  0
   16.3913   -1.8306   -3.8805 C   0  0  0  0  0  0  0  0  0  0  0  0
   16.8420   -2.1235   -4.8231 H   0  0  0  0  0  0  0  0  0  0  0  0
   16.3253   -0.4734   -3.5494 C   0  0  0  0  0  0  0  0  0  0  0  0
   16.7174    0.2763   -4.2336 H   0  0  0  0  0  0  0  0  0  0  0  0
   15.7533   -0.0907   -2.3350 C   0  0  0  0  0  0  0  0  0  0  0  0
   15.7065    0.9606   -2.0653 H   0  0  0  0  0  0  0  0  0  0  0  0
   15.2414   -1.0618   -1.4668 C   0  0  0  0  0  0  0  0  0  0  0  0
   14.8014   -0.7402   -0.5270 H   0  0  0  0  0  0  0  0  0  0  0  0
   13.1838   -3.1175   -0.5864 C   0  0  0  0  0  0  0  0  0  0  0  0
   12.2867   -3.1829   -1.4272 O   0  0  0  0  0  0  0  0  0  0  0  0
   12.9746   -2.6972    0.7128 N   0  0  0  0  0  0  0  0  0  0  0  0
   11.7064   -2.2853    1.3152 C   0  0  0  0  0  0  0  0  0  0  0  0
   11.7256   -1.2262    1.5968 H   0  0  0  0  0  0  0  0  0  0  0  0
   10.8741   -2.4313    0.6180 H   0  0  0  0  0  0  0  0  0  0  0  0
   11.5018   -2.8793    2.2129 H   0  0  0  0  0  0  0  0  0  0  0  0
   14.2064   -2.6811    1.3310 C   0  0  0  0  0  0  0  0  0  0  0  0
   14.4510   -2.2467    2.5983 N   0  0  0  0  0  0  0  0  0  0  0  0
   15.3817   -2.3882    2.9900 H   0  0  0  0  0  0  0  0  0  0  0  0
   13.6589   -2.1019    3.2197 H   0  0  0  0  0  0  0  0  0  0  0  0
   15.1539   -3.1121    0.5685 N   0  0  0  0  0  4  0  0  0  0  0  0
   16.1395   -3.1321    0.8352 H   0  0  0  0  0  0  0  0  0  0  0  0
   13.9570   -5.8415   -1.4429 C   0  0  0  0  0  0  0  0  0  0  0  0
   12.9558   -5.4669   -1.6470 H   0  0  0  0  0  0  0  0  0  0  0  0
   13.7021   -9.1320   -2.9264 N   0  0  0  0  0  0  0  0  0  0  0  0
   12.9142  -10.1355   -3.2799 C   0  0  0  0  0  0  0  0  0  0  0  0
   13.2733  -10.8307   -4.0332 H   0  0  0  0  0  0  0  0  0  0  0  0
   11.6598  -10.2689   -2.7383 C   0  0  0  0  0  0  0  0  0  0  0  0
   11.0306  -11.0950   -3.0304 H   0  0  0  0  0  0  0  0  0  0  0  0
  1  2  1  0
  2  3  2  0
  3  4  1  0
  4  5  1  0
  5  6  2  0
  6  7  1  0
  6  8  1  0
  8  9  1  0
  8 10  2  0
 10 11  1  0
 10 12  1  0
 12 13  1  0
 13 14  1  0
 14 15  2  0
 15 16  1  0
 15 17  1  0
 17 18  1  0
 17 19  2  0
 19 20  1  0
 19 21  1  0
 21 22  1  0
 21 23  2  0
 23 24  1  0
 13 25  1  0
 25 26  2  0
 25 27  1  0
 27 28  1  0
 28 29  1  0
 28 30  1  0
 28 31  1  0
 27 32  1  0
 32 33  1  0
 33 34  1  0
 33 35  1  0
 32 36  2  0
 36 37  1  0
 12 38  2  0
 38 39  1  0
  4 40  2  0
 40 41  1  0
 41 42  1  0
 41 43  2  0
 43 44  1  0
 43  2  1  0
 38  5  1  0
 36 13  1  0
 23 14  1  0
M  CHG  1  36   1
M  END
>  <score>  (356) 
5.24122

$$$$

     RDKit          3D

 46 49  0  0  0  0  0  0  0  0999 V2000
   11.4780  -10.3337    0.4481 H   0  0  0  0  0  0  0  0  0  0  0  0
   11.7568   -9.5333   -0.2334 C   0  0  0  0  0  0  0  0  0  0  0  0
   10.9431   -8.4629   -0.5834 N   0  0  0  0  0  0  0  0  0  0  0  0
   11.6550   -7.7291   -1.4076 C   0  0  0  0  0  0  0  0  0  0  0  0
   11.2967   -6.8104   -1.8602 H   0  0  0  0  0  0  0  0  0  0  0  0
   12.9096   -8.2913   -1.6230 N   0  0  0  0  0  0  0  0  0  0  0  0
   13.9710   -7.7970   -2.5096 C   0  0  0  0  0  0  0  0  0  0  0  0
   13.5499   -7.2160   -3.3307 H   0  0  0  0  0  0  0  0  0  0  0  0
   14.4992   -8.6458   -2.9574 H   0  0  0  0  0  0  0  0  0  0  0  0
   14.9085   -6.8928   -1.7578 C   0  0  0  0  0  0  0  0  0  0  0  0
   16.1432   -7.3497   -1.2756 C   0  0  0  0  0  0  0  0  0  0  0  0
   16.4225   -8.3939   -1.3864 H   0  0  0  0  0  0  0  0  0  0  0  0
   17.0287   -6.4532   -0.6608 C   0  0  0  0  0  0  0  0  0  0  0  0
   17.9951   -6.8016   -0.2963 H   0  0  0  0  0  0  0  0  0  0  0  0
   16.6685   -5.1084   -0.4995 C   0  0  0  0  0  0  0  0  0  0  0  0
   17.3689   -4.4158   -0.0397 H   0  0  0  0  0  0  0  0  0  0  0  0
   15.4062   -4.6482   -0.9036 C   0  0  0  0  0  0  0  0  0  0  0  0
   14.9966   -3.2088   -0.6323 C   0  0  0  0  0  0  0  0  0  0  0  0
   15.4979   -2.2395   -1.6933 C   0  0  0  0  0  0  0  0  0  0  0  0
   15.9916   -2.6701   -2.9402 C   0  0  0  0  0  0  0  0  0  0  0  0
   16.0458   -3.7333   -3.1632 H   0  0  0  0  0  0  0  0  0  0  0  0
   16.4264   -1.7375   -3.8924 C   0  0  0  0  0  0  0  0  0  0  0  0
   16.8292   -2.0713   -4.8439 H   0  0  0  0  0  0  0  0  0  0  0  0
   16.3571   -0.3676   -3.6190 C   0  0  0  0  0  0  0  0  0  0  0  0
   16.7068    0.3507   -4.3551 H   0  0  0  0  0  0  0  0  0  0  0  0
   15.8306    0.0712   -2.4007 C   0  0  0  0  0  0  0  0  0  0  0  0
   15.7685    1.1347   -2.1883 H   0  0  0  0  0  0  0  0  0  0  0  0
   15.4004   -0.8598   -1.4526 C   0  0  0  0  0  0  0  0  0  0  0  0
   14.9926   -0.5060   -0.5107 H   0  0  0  0  0  0  0  0  0  0  0  0
   13.4814   -3.0361   -0.4335 C   0  0  0  0  0  0  0  0  0  0  0  0
   12.6018   -3.2468   -1.2616 O   0  0  0  0  0  0  0  0  0  0  0  0
   13.2205   -2.6043    0.8505 N   0  0  0  0  0  0  0  0  0  0  0  0
   11.9237   -2.2975    1.4511 C   0  0  0  0  0  0  0  0  0  0  0  0
   11.1192   -2.8483    0.9575 H   0  0  0  0  0  0  0  0  0  0  0  0
   11.7088   -1.2286    1.3659 H   0  0  0  0  0  0  0  0  0  0  0  0
   11.9094   -2.5612    2.5158 H   0  0  0  0  0  0  0  0  0  0  0  0
   14.4221   -2.5684    1.4962 C   0  0  0  0  0  0  0  0  0  0  0  0
   14.5733   -2.3713    2.8276 N   0  0  0  0  0  0  0  0  0  0  0  0
   13.7817   -1.9848    3.3457 H   0  0  0  0  0  0  0  0  0  0  0  0
   15.5186   -2.1783    3.1377 H   0  0  0  0  0  0  0  0  0  0  0  0
   15.4235   -2.8267    0.7303 N   0  0  0  0  0  4  0  0  0  0  0  0
   16.3262   -3.1028    1.1224 H   0  0  0  0  0  0  0  0  0  0  0  0
   14.5504   -5.5521   -1.5558 C   0  0  0  0  0  0  0  0  0  0  0  0
   13.5856   -5.2233   -1.9252 H   0  0  0  0  0  0  0  0  0  0  0  0
   12.9635   -9.4393   -0.8633 C   0  0  0  0  0  0  0  0  0  0  0  0
   13.7970  -10.1277   -0.7767 H   0  0  0  0  0  0  0  0  0  0  0  0
  1  2  1  0
  2  3  1  0
  3  4  2  0
  4  5  1  0
  4  6  1  0
  6  7  1  0
  7  8  1  0
  7  9  1  0
  7 10  1  0
 10 11  2  0
 11 12  1  0
 11 13  1  0
 13 14  1  0
 13 15  2  0
 15 16  1  0
 15 17  1  0
 17 18  1  0
 18 19  1  0
 19 20  2  0
 20 21  1  0
 20 22  1  0
 22 23  1  0
 22 24  2  0
 24 25  1  0
 24 26  1  0
 26 27  1  0
 26 28  2  0
 28 29  1  0
 18 30  1  0
 30 31  2  0
 30 32  1  0
 32 33  1  0
 33 34  1  0
 33 35  1  0
 33 36  1  0
 32 37  1  0
 37 38  1  0
 38 39  1  0
 38 40  1  0
 37 41  2  0
 41 42  1  0
 17 43  2  0
 43 44  1  0
  6 45  1  0
 45 46  1  0
 45  2  2  0
 43 10  1  0
 41 18  1  0
 28 19  1  0
M  CHG  1  41   1
M  END
>  <score>  (357) 
5.23899

$$$$

     RDKit          3D

 49 53  0  0  0  0  0  0  0  0999 V2000
   15.3456   -8.4674   -3.1271 H   0  0  0  0  0  0  0  0  0  0  0  0
   14.3095   -8.5773   -2.8479 C   0  0  0  0  0  0  0  0  0  0  0  0
   13.2350   -9.8134   -3.4598 S   0  0  0  0  0  0  0  0  0  0  0  0
   11.9301   -9.1205   -2.5187 C   0  0  0  0  0  0  0  0  0  0  0  0
   10.6184   -9.6028   -2.5211 C   0  0  0  0  0  0  0  0  0  0  0  0
   10.3506  -10.4856   -3.0959 H   0  0  0  0  0  0  0  0  0  0  0  0
    9.6467   -8.9312   -1.7758 C   0  0  0  0  0  0  0  0  0  0  0  0
    8.6208   -9.2862   -1.7642 H   0  0  0  0  0  0  0  0  0  0  0  0
    9.9928   -7.7839   -1.0492 C   0  0  0  0  0  0  0  0  0  0  0  0
    9.2230   -7.2509   -0.4971 H   0  0  0  0  0  0  0  0  0  0  0  0
   11.3202   -7.3139   -1.0450 C   0  0  0  0  0  0  0  0  0  0  0  0
   11.5809   -6.4267   -0.4766 H   0  0  0  0  0  0  0  0  0  0  0  0
   12.3092   -7.9852   -1.7835 C   0  0  0  0  0  0  0  0  0  0  0  0
   13.7487   -7.7109   -1.9554 C   0  0  0  0  0  0  0  0  0  0  0  0
   14.6756   -6.7252   -1.3750 C   0  0  0  0  0  0  0  0  0  0  0  0
   15.9829   -7.1396   -1.0563 C   0  0  0  0  0  0  0  0  0  0  0  0
   16.2455   -8.1868   -1.1687 H   0  0  0  0  0  0  0  0  0  0  0  0
   16.9512   -6.2323   -0.6359 C   0  0  0  0  0  0  0  0  0  0  0  0
   17.9635   -6.5656   -0.4261 H   0  0  0  0  0  0  0  0  0  0  0  0
   16.6131   -4.8904   -0.5005 C   0  0  0  0  0  0  0  0  0  0  0  0
   17.3718   -4.1832   -0.1792 H   0  0  0  0  0  0  0  0  0  0  0  0
   15.3082   -4.4492   -0.7757 C   0  0  0  0  0  0  0  0  0  0  0  0
   14.9578   -2.9878   -0.5679 C   0  0  0  0  0  0  0  0  0  0  0  0
   15.4936   -2.0618   -1.6567 C   0  0  0  0  0  0  0  0  0  0  0  0
   15.9853   -2.5484   -2.8826 C   0  0  0  0  0  0  0  0  0  0  0  0
   16.0173   -3.6179   -3.0576 H   0  0  0  0  0  0  0  0  0  0  0  0
   16.4313   -1.6743   -3.8850 C   0  0  0  0  0  0  0  0  0  0  0  0
   16.8128   -2.0623   -4.8222 H   0  0  0  0  0  0  0  0  0  0  0  0
   16.3847   -0.2923   -3.6800 C   0  0  0  0  0  0  0  0  0  0  0  0
   16.7366    0.3892   -4.4522 H   0  0  0  0  0  0  0  0  0  0  0  0
   15.8801    0.2062   -2.4772 C   0  0  0  0  0  0  0  0  0  0  0  0
   15.8286    1.2787   -2.3121 H   0  0  0  0  0  0  0  0  0  0  0  0
   15.4370   -0.6689   -1.4767 C   0  0  0  0  0  0  0  0  0  0  0  0
   15.0416   -0.2606   -0.5506 H   0  0  0  0  0  0  0  0  0  0  0  0
   13.4476   -2.7652   -0.3726 C   0  0  0  0  0  0  0  0  0  0  0  0
   12.5689   -2.9197   -1.2160 O   0  0  0  0  0  0  0  0  0  0  0  0
   13.1954   -2.3999    0.9342 N   0  0  0  0  0  0  0  0  0  0  0  0
   11.8861   -2.2289    1.5730 C   0  0  0  0  0  0  0  0  0  0  0  0
   11.1145   -2.8264    1.0743 H   0  0  0  0  0  0  0  0  0  0  0  0
   11.9253   -2.5540    2.6200 H   0  0  0  0  0  0  0  0  0  0  0  0
   11.5736   -1.1774    1.5454 H   0  0  0  0  0  0  0  0  0  0  0  0
   14.4028   -2.4203    1.5852 C   0  0  0  0  0  0  0  0  0  0  0  0
   14.5056   -2.3454    2.9429 N   0  0  0  0  0  0  0  0  0  0  0  0
   15.3963   -2.0390    3.3183 H   0  0  0  0  0  0  0  0  0  0  0  0
   13.6585   -2.1438    3.4680 H   0  0  0  0  0  0  0  0  0  0  0  0
   15.4074   -2.6154    0.7931 N   0  0  0  0  0  4  0  0  0  0  0  0
   16.3257   -2.8846    1.1407 H   0  0  0  0  0  0  0  0  0  0  0  0
   14.3477   -5.3724   -1.2357 C   0  0  0  0  0  0  0  0  0  0  0  0
   13.3602   -5.0310   -1.5314 H   0  0  0  0  0  0  0  0  0  0  0  0
  1  2  1  0
  2  3  1  0
  3  4  1  0
  4  5  2  0
  5  6  1  0
  5  7  1  0
  7  8  1  0
  7  9  2  0
  9 10  1  0
  9 11  1  0
 11 12  1  0
 11 13  2  0
 13 14  1  0
 14 15  1  0
 15 16  2  0
 16 17  1  0
 16 18  1  0
 18 19  1  0
 18 20  2  0
 20 21  1  0
 20 22  1  0
 22 23  1  0
 23 24  1  0
 24 25  2  0
 25 26  1  0
 25 27  1  0
 27 28  1  0
 27 29  2  0
 29 30  1  0
 29 31  1  0
 31 32  1  0
 31 33  2  0
 33 34  1  0
 23 35  1  0
 35 36  2  0
 35 37  1  0
 37 38  1  0
 38 39  1  0
 38 40  1  0
 38 41  1  0
 37 42  1  0
 42 43  1  0
 43 44  1  0
 43 45  1  0
 42 46  2  0
 46 47  1  0
 22 48  2  0
 48 49  1  0
 14  2  2  0
 48 15  1  0
 13  4  1  0
 46 23  1  0
 33 24  1  0
M  CHG  1  46   1
M  END
>  <score>  (358) 
5.23607

$$$$

     RDKit          3D

 42 44  0  0  0  0  0  0  0  0999 V2000
   16.1045   -8.4669   -1.6141 H   0  0  0  0  0  0  0  0  0  0  0  0
   15.8598   -7.4172   -1.4824 C   0  0  0  0  0  0  0  0  0  0  0  0
   16.7397   -6.5690   -0.8047 C   0  0  0  0  0  0  0  0  0  0  0  0
   17.6735   -6.9586   -0.4104 H   0  0  0  0  0  0  0  0  0  0  0  0
   16.4042   -5.2248   -0.6064 C   0  0  0  0  0  0  0  0  0  0  0  0
   17.0767   -4.5729   -0.0555 H   0  0  0  0  0  0  0  0  0  0  0  0
   15.1875   -4.7046   -1.0729 C   0  0  0  0  0  0  0  0  0  0  0  0
   14.8208   -3.2494   -0.7747 C   0  0  0  0  0  0  0  0  0  0  0  0
   15.4086   -2.2456   -1.7710 C   0  0  0  0  0  0  0  0  0  0  0  0
   15.9563   -2.6533   -2.9968 C   0  0  0  0  0  0  0  0  0  0  0  0
   15.9861   -3.7122   -3.2411 H   0  0  0  0  0  0  0  0  0  0  0  0
   16.4380   -1.7009   -3.9018 C   0  0  0  0  0  0  0  0  0  0  0  0
   16.8392   -2.0098   -4.8611 H   0  0  0  0  0  0  0  0  0  0  0  0
   16.3732   -0.3374   -3.6059 C   0  0  0  0  0  0  0  0  0  0  0  0
   16.7420    0.3490   -4.3670 H   0  0  0  0  0  0  0  0  0  0  0  0
   15.8195    0.1035   -2.3877 C   0  0  0  0  0  0  0  0  0  0  0  0
   15.6249    1.9007   -2.0452 S   0  0  0  0  0  0  0  0  0  0  0  0
   15.7660    2.7045   -3.2695 O   0  0  0  0  0  0  0  0  0  0  0  0
   14.3753    2.1930   -1.3267 O   0  0  0  0  0  0  0  0  0  0  0  0
   16.9812    2.3189   -0.9656 C   0  0  0  0  0  0  0  0  0  0  0  0
   17.9039    2.0891   -1.4936 H   0  0  0  0  0  0  0  0  0  0  0  0
   16.8674    1.7220   -0.0614 H   0  0  0  0  0  0  0  0  0  0  0  0
   16.9438    3.3840   -0.7249 H   0  0  0  0  0  0  0  0  0  0  0  0
   15.3440   -0.8705   -1.4815 C   0  0  0  0  0  0  0  0  0  0  0  0
   14.8798   -0.6036   -0.5322 H   0  0  0  0  0  0  0  0  0  0  0  0
   13.2954   -3.0513   -0.5924 C   0  0  0  0  0  0  0  0  0  0  0  0
   12.4316   -3.1266   -1.4633 O   0  0  0  0  0  0  0  0  0  0  0  0
   13.0223   -2.6871    0.7123 N   0  0  0  0  0  0  0  0  0  0  0  0
   11.7182   -2.3138    1.2740 C   0  0  0  0  0  0  0  0  0  0  0  0
   11.4997   -2.9196    2.1636 H   0  0  0  0  0  0  0  0  0  0  0  0
   11.7103   -1.2534    1.5598 H   0  0  0  0  0  0  0  0  0  0  0  0
   10.9152   -2.4749    0.5443 H   0  0  0  0  0  0  0  0  0  0  0  0
   14.2348   -2.6220    1.3649 C   0  0  0  0  0  0  0  0  0  0  0  0
   14.4083   -2.3080    2.6776 N   0  0  0  0  0  0  0  0  0  0  0  0
   13.5936   -2.1245    3.2622 H   0  0  0  0  0  0  0  0  0  0  0  0
   15.3431   -2.3379    3.0799 H   0  0  0  0  0  0  0  0  0  0  0  0
   15.2411   -2.9057    0.6016 N   0  0  0  0  0  4  0  0  0  0  0  0
   16.2068   -2.9562    0.9306 H   0  0  0  0  0  0  0  0  0  0  0  0
   14.3149   -5.5669   -1.7673 C   0  0  0  0  0  0  0  0  0  0  0  0
   13.3606   -5.1919   -2.1263 H   0  0  0  0  0  0  0  0  0  0  0  0
   14.6489   -6.9160   -1.9683 C   0  0  0  0  0  0  0  0  0  0  0  0
   13.9616   -7.5797   -2.4867 H   0  0  0  0  0  0  0  0  0  0  0  0
  1  2  1  0
  2  3  2  0
  3  4  1  0
  3  5  1  0
  5  6  1  0
  5  7  2  0
  7  8  1  0
  8  9  1  0
  9 10  2  0
 10 11  1  0
 10 12  1  0
 12 13  1  0
 12 14  2  0
 14 15  1  0
 14 16  1  0
 16 17  1  0
 17 18  2  0
 17 19  2  0
 17 20  1  0
 20 21  1  0
 20 22  1  0
 20 23  1  0
 16 24  2  0
 24 25  1  0
  8 26  1  0
 26 27  2  0
 26 28  1  0
 28 29  1  0
 29 30  1  0
 29 31  1  0
 29 32  1  0
 28 33  1  0
 33 34  1  0
 34 35  1  0
 34 36  1  0
 33 37  2  0
 37 38  1  0
  7 39  1  0
 39 40  1  0
 39 41  2  0
 41 42  1  0
 41  2  1  0
 37  8  1  0
 24  9  1  0
M  CHG  1  37   1
M  END
>  <score>  (359) 
5.23472

$$$$

     RDKit          3D

 38 40  0  0  0  0  0  0  0  0999 V2000
   16.1416   -8.5103   -1.6730 H   0  0  0  0  0  0  0  0  0  0  0  0
   15.8902   -7.4590   -1.5403 C   0  0  0  0  0  0  0  0  0  0  0  0
   16.7975   -6.5872   -0.9247 C   0  0  0  0  0  0  0  0  0  0  0  0
   17.7622   -6.9416   -0.5735 H   0  0  0  0  0  0  0  0  0  0  0  0
   16.4514   -5.2486   -0.7268 C   0  0  0  0  0  0  0  0  0  0  0  0
   17.1443   -4.5836   -0.2197 H   0  0  0  0  0  0  0  0  0  0  0  0
   15.2023   -4.7522   -1.1199 C   0  0  0  0  0  0  0  0  0  0  0  0
   14.8419   -3.3050   -0.8043 C   0  0  0  0  0  0  0  0  0  0  0  0
   15.3874   -2.2918   -1.7976 C   0  0  0  0  0  0  0  0  0  0  0  0
   15.9500   -2.6538   -3.0361 C   0  0  0  0  0  0  0  0  0  0  0  0
   15.9962   -3.6996   -3.3190 H   0  0  0  0  0  0  0  0  0  0  0  0
   16.4413   -1.6805   -3.9201 C   0  0  0  0  0  0  0  0  0  0  0  0
   16.8880   -1.9716   -4.8694 H   0  0  0  0  0  0  0  0  0  0  0  0
   16.3569   -0.3271   -3.5703 C   0  0  0  0  0  0  0  0  0  0  0  0
   16.7472    0.4433   -4.2266 H   0  0  0  0  0  0  0  0  0  0  0  0
   15.7828    0.0556   -2.3580 C   0  0  0  0  0  0  0  0  0  0  0  0
   15.7030    1.3913   -2.0269 N   0  0  0  0  0  0  0  0  0  0  0  0
   15.3525    2.1582   -1.1755 C   0  0  0  0  0  0  0  0  0  0  0  0
   14.8798    3.1950   -0.0810 S   0  0  0  0  0  0  0  0  0  0  0  0
   15.2945   -0.9218   -1.4889 C   0  0  0  0  0  0  0  0  0  0  0  0
   14.8314   -0.5912   -0.5645 H   0  0  0  0  0  0  0  0  0  0  0  0
   13.3331   -3.0851   -0.5929 C   0  0  0  0  0  0  0  0  0  0  0  0
   12.4457   -3.2935   -1.4190 O   0  0  0  0  0  0  0  0  0  0  0  0
   13.1048   -2.6294    0.6914 N   0  0  0  0  0  0  0  0  0  0  0  0
   11.8208   -2.2274    1.2663 C   0  0  0  0  0  0  0  0  0  0  0  0
   11.8499   -2.3424    2.3579 H   0  0  0  0  0  0  0  0  0  0  0  0
   11.0149   -2.8623    0.8712 H   0  0  0  0  0  0  0  0  0  0  0  0
   11.5958   -1.1746    1.0357 H   0  0  0  0  0  0  0  0  0  0  0  0
   14.3293   -2.5761    1.3214 C   0  0  0  0  0  0  0  0  0  0  0  0
   14.5637   -2.1834    2.6082 N   0  0  0  0  0  0  0  0  0  0  0  0
   13.7918   -2.2604    3.2658 H   0  0  0  0  0  0  0  0  0  0  0  0
   15.5148   -2.2948    2.9663 H   0  0  0  0  0  0  0  0  0  0  0  0
   15.2982   -2.9477    0.5546 N   0  0  0  0  0  4  0  0  0  0  0  0
   16.2858   -2.8763    0.8148 H   0  0  0  0  0  0  0  0  0  0  0  0
   14.3022   -5.6211   -1.7621 C   0  0  0  0  0  0  0  0  0  0  0  0
   13.3398   -5.2252   -2.0809 H   0  0  0  0  0  0  0  0  0  0  0  0
   14.6464   -6.9700   -1.9712 C   0  0  0  0  0  0  0  0  0  0  0  0
   13.9422   -7.6404   -2.4576 H   0  0  0  0  0  0  0  0  0  0  0  0
  1  2  1  0
  2  3  2  0
  3  4  1  0
  3  5  1  0
  5  6  1  0
  5  7  2  0
  7  8  1  0
  8  9  1  0
  9 10  2  0
 10 11  1  0
 10 12  1  0
 12 13  1  0
 12 14  2  0
 14 15  1  0
 14 16  1  0
 16 17  1  0
 17 18  2  0
 18 19  2  0
 16 20  2  0
 20 21  1  0
  8 22  1  0
 22 23  2  0
 22 24  1  0
 24 25  1  0
 25 26  1  0
 25 27  1  0
 25 28  1  0
 24 29  1  0
 29 30  1  0
 30 31  1  0
 30 32  1  0
 29 33  2  0
 33 34  1  0
  7 35  1  0
 35 36  1  0
 35 37  2  0
 37 38  1  0
 37  2  1  0
 33  8  1  0
 20  9  1  0
M  CHG  1  33   1
M  END
>  <score>  (360) 
5.23442

$$$$

     RDKit          3D

 40 42  0  0  0  0  0  0  0  0999 V2000
   16.0889   -8.4347   -1.6420 H   0  0  0  0  0  0  0  0  0  0  0  0
   15.8574   -7.3845   -1.4871 C   0  0  0  0  0  0  0  0  0  0  0  0
   16.7545   -6.5571   -0.8045 C   0  0  0  0  0  0  0  0  0  0  0  0
   17.6842   -6.9618   -0.4180 H   0  0  0  0  0  0  0  0  0  0  0  0
   16.4451   -5.2092   -0.5966 C   0  0  0  0  0  0  0  0  0  0  0  0
   17.1441   -4.5805   -0.0507 H   0  0  0  0  0  0  0  0  0  0  0  0
   15.2311   -4.6711   -1.0560 C   0  0  0  0  0  0  0  0  0  0  0  0
   14.8610   -3.2206   -0.7675 C   0  0  0  0  0  0  0  0  0  0  0  0
   15.3704   -2.2181   -1.7883 C   0  0  0  0  0  0  0  0  0  0  0  0
   15.9462   -2.6382   -2.9936 C   0  0  0  0  0  0  0  0  0  0  0  0
   16.0382   -3.6979   -3.1927 H   0  0  0  0  0  0  0  0  0  0  0  0
   16.4162   -1.7151   -3.9319 C   0  0  0  0  0  0  0  0  0  0  0  0
   16.8863   -2.0508   -4.8467 H   0  0  0  0  0  0  0  0  0  0  0  0
   16.2650   -0.3510   -3.7020 C   0  0  0  0  0  0  0  0  0  0  0  0
   16.6305    0.3809   -4.4176 H   0  0  0  0  0  0  0  0  0  0  0  0
   15.6308    0.0823   -2.5403 C   0  0  0  0  0  0  0  0  0  0  0  0
   15.3432    1.7926   -2.3098 S   0  0  0  0  0  0  0  0  0  0  0  0
   16.8833    2.0554   -1.3693 C   0  0  0  0  0  0  0  0  0  0  0  0
   17.7509    1.7586   -1.9613 H   0  0  0  0  0  0  0  0  0  0  0  0
   16.8585    1.4598   -0.4541 H   0  0  0  0  0  0  0  0  0  0  0  0
   16.9856    3.1097   -1.1155 H   0  0  0  0  0  0  0  0  0  0  0  0
   15.2211   -0.8367   -1.5697 C   0  0  0  0  0  0  0  0  0  0  0  0
   14.7791   -0.4593   -0.6502 H   0  0  0  0  0  0  0  0  0  0  0  0
   13.3451   -3.0346   -0.5792 C   0  0  0  0  0  0  0  0  0  0  0  0
   12.4646   -3.1785   -1.4287 O   0  0  0  0  0  0  0  0  0  0  0  0
   13.0935   -2.6926    0.7315 N   0  0  0  0  0  0  0  0  0  0  0  0
   11.8127   -2.3117    1.3248 C   0  0  0  0  0  0  0  0  0  0  0  0
   10.9833   -2.8436    0.8402 H   0  0  0  0  0  0  0  0  0  0  0  0
   11.8002   -2.5612    2.3944 H   0  0  0  0  0  0  0  0  0  0  0  0
   11.6542   -1.2309    1.2148 H   0  0  0  0  0  0  0  0  0  0  0  0
   14.3094   -2.6113    1.3721 C   0  0  0  0  0  0  0  0  0  0  0  0
   14.5251   -2.3454    2.6874 N   0  0  0  0  0  0  0  0  0  0  0  0
   15.1228   -1.5362    2.8301 H   0  0  0  0  0  0  0  0  0  0  0  0
   14.8474   -3.1605    3.1989 H   0  0  0  0  0  0  0  0  0  0  0  0
   15.3030   -2.8659    0.5919 N   0  0  0  0  0  4  0  0  0  0  0  0
   16.2584   -3.0049    0.9241 H   0  0  0  0  0  0  0  0  0  0  0  0
   14.3405   -5.5106   -1.7476 C   0  0  0  0  0  0  0  0  0  0  0  0
   13.3921   -5.1141   -2.0987 H   0  0  0  0  0  0  0  0  0  0  0  0
   14.6525   -6.8578   -1.9619 C   0  0  0  0  0  0  0  0  0  0  0  0
   13.9474   -7.4930   -2.4876 H   0  0  0  0  0  0  0  0  0  0  0  0
  1  2  1  0
  2  3  2  0
  3  4  1  0
  3  5  1  0
  5  6  1  0
  5  7  2  0
  7  8  1  0
  8  9  1  0
  9 10  2  0
 10 11  1  0
 10 12  1  0
 12 13  1  0
 12 14  2  0
 14 15  1  0
 14 16  1  0
 16 17  1  0
 17 18  1  0
 18 19  1  0
 18 20  1  0
 18 21  1  0
 16 22  2  0
 22 23  1  0
  8 24  1  0
 24 25  2  0
 24 26  1  0
 26 27  1  0
 27 28  1  0
 27 29  1  0
 27 30  1  0
 26 31  1  0
 31 32  1  0
 32 33  1  0
 32 34  1  0
 31 35  2  0
 35 36  1  0
  7 37  1  0
 37 38  1  0
 37 39  2  0
 39 40  1  0
 39  2  1  0
 35  8  1  0
 22  9  1  0
M  CHG  1  35   1
M  END
>  <score>  (361) 
5.23297

$$$$

     RDKit          3D

 39 41  0  0  0  0  0  0  0  0999 V2000
   16.1179   -8.4837   -1.6116 H   0  0  0  0  0  0  0  0  0  0  0  0
   15.8536   -7.4364   -1.4746 C   0  0  0  0  0  0  0  0  0  0  0  0
   16.7313   -6.5794   -0.8056 C   0  0  0  0  0  0  0  0  0  0  0  0
   17.6705   -6.9567   -0.4147 H   0  0  0  0  0  0  0  0  0  0  0  0
   16.3967   -5.2344   -0.6124 C   0  0  0  0  0  0  0  0  0  0  0  0
   17.0660   -4.5817   -0.0597 H   0  0  0  0  0  0  0  0  0  0  0  0
   15.1793   -4.7130   -1.0768 C   0  0  0  0  0  0  0  0  0  0  0  0
   14.8180   -3.2536   -0.7836 C   0  0  0  0  0  0  0  0  0  0  0  0
   15.3842   -2.2476   -1.7802 C   0  0  0  0  0  0  0  0  0  0  0  0
   15.9368   -2.6409   -3.0081 C   0  0  0  0  0  0  0  0  0  0  0  0
   15.9982   -3.6952   -3.2505 H   0  0  0  0  0  0  0  0  0  0  0  0
   16.4185   -1.6925   -3.9205 C   0  0  0  0  0  0  0  0  0  0  0  0
   16.8549   -2.0021   -4.8630 H   0  0  0  0  0  0  0  0  0  0  0  0
   16.3506   -0.3296   -3.6223 C   0  0  0  0  0  0  0  0  0  0  0  0
   16.7199    0.4053   -4.3343 H   0  0  0  0  0  0  0  0  0  0  0  0
   15.8043    0.0904   -2.4058 C   0  0  0  0  0  0  0  0  0  0  0  0
   15.7346    1.5619   -2.0747 C   0  0  0  0  0  0  0  0  0  0  0  0
   15.6408    2.1522   -2.9862 H   0  0  0  0  0  0  0  0  0  0  0  0
   14.8593    1.7691   -1.4584 H   0  0  0  0  0  0  0  0  0  0  0  0
   17.1888    2.1245   -1.2148 Cl  0  0  0  0  0  0  0  0  0  0  0  0
   15.3215   -0.8693   -1.5024 C   0  0  0  0  0  0  0  0  0  0  0  0
   14.9006   -0.5356   -0.5599 H   0  0  0  0  0  0  0  0  0  0  0  0
   13.3043   -3.0341   -0.5980 C   0  0  0  0  0  0  0  0  0  0  0  0
   12.4369   -3.0925   -1.4651 O   0  0  0  0  0  0  0  0  0  0  0  0
   13.0253   -2.6793    0.7043 N   0  0  0  0  0  0  0  0  0  0  0  0
   11.7197   -2.3136    1.2642 C   0  0  0  0  0  0  0  0  0  0  0  0
   10.9111   -2.4726    0.5423 H   0  0  0  0  0  0  0  0  0  0  0  0
   11.5033   -2.9170    2.1485 H   0  0  0  0  0  0  0  0  0  0  0  0
   11.6965   -1.2614    1.5608 H   0  0  0  0  0  0  0  0  0  0  0  0
   14.2295   -2.6281    1.3650 C   0  0  0  0  0  0  0  0  0  0  0  0
   14.3978   -2.3269    2.6832 N   0  0  0  0  0  0  0  0  0  0  0  0
   13.5840   -2.1267    3.2582 H   0  0  0  0  0  0  0  0  0  0  0  0
   15.3359   -2.3503    3.0873 H   0  0  0  0  0  0  0  0  0  0  0  0
   15.2222   -2.9044    0.5942 N   0  0  0  0  0  4  0  0  0  0  0  0
   16.1893   -2.9220    0.9129 H   0  0  0  0  0  0  0  0  0  0  0  0
   14.3068   -5.5824   -1.7675 C   0  0  0  0  0  0  0  0  0  0  0  0
   13.3543   -5.2236   -2.1482 H   0  0  0  0  0  0  0  0  0  0  0  0
   14.6436   -6.9333   -1.9627 C   0  0  0  0  0  0  0  0  0  0  0  0
   13.9716   -7.6063   -2.4873 H   0  0  0  0  0  0  0  0  0  0  0  0
  1  2  1  0
  2  3  2  0
  3  4  1  0
  3  5  1  0
  5  6  1  0
  5  7  2  0
  7  8  1  0
  8  9  1  0
  9 10  2  0
 10 11  1  0
 10 12  1  0
 12 13  1  0
 12 14  2  0
 14 15  1  0
 14 16  1  0
 16 17  1  0
 17 18  1  0
 17 19  1  0
 17 20  1  0
 16 21  2  0
 21 22  1  0
  8 23  1  0
 23 24  2  0
 23 25  1  0
 25 26  1  0
 26 27  1  0
 26 28  1  0
 26 29  1  0
 25 30  1  0
 30 31  1  0
 31 32  1  0
 31 33  1  0
 30 34  2  0
 34 35  1  0
  7 36  1  0
 36 37  1  0
 36 38  2  0
 38 39  1  0
 38  2  1  0
 34  8  1  0
 21  9  1  0
M  CHG  1  34   1
M  END
>  <score>  (362) 
5.23219

$$$$

     RDKit          3D

 43 45  0  0  0  0  0  0  0  0999 V2000
   16.1136   -8.4593   -1.6834 H   0  0  0  0  0  0  0  0  0  0  0  0
   15.8773   -7.4123   -1.5204 C   0  0  0  0  0  0  0  0  0  0  0  0
   16.7781   -6.5924   -0.8356 C   0  0  0  0  0  0  0  0  0  0  0  0
   17.7157   -6.9946   -0.4652 H   0  0  0  0  0  0  0  0  0  0  0  0
   16.4646   -5.2482   -0.6093 C   0  0  0  0  0  0  0  0  0  0  0  0
   17.1605   -4.6170   -0.0619 H   0  0  0  0  0  0  0  0  0  0  0  0
   15.2507   -4.7064   -1.0618 C   0  0  0  0  0  0  0  0  0  0  0  0
   14.8885   -3.2603   -0.7485 C   0  0  0  0  0  0  0  0  0  0  0  0
   15.3805   -2.2522   -1.7811 C   0  0  0  0  0  0  0  0  0  0  0  0
   15.9331   -2.6163   -3.0217 C   0  0  0  0  0  0  0  0  0  0  0  0
   16.0055   -3.6668   -3.2846 H   0  0  0  0  0  0  0  0  0  0  0  0
   16.4055   -1.6370   -3.9093 C   0  0  0  0  0  0  0  0  0  0  0  0
   16.8551   -1.9335   -4.8518 H   0  0  0  0  0  0  0  0  0  0  0  0
   16.3109   -0.2801   -3.5710 C   0  0  0  0  0  0  0  0  0  0  0  0
   16.6930    0.4836   -4.2403 H   0  0  0  0  0  0  0  0  0  0  0  0
   15.7413    0.0979   -2.3476 C   0  0  0  0  0  0  0  0  0  0  0  0
   15.6172    1.3918   -1.9091 O   0  0  0  0  0  0  0  0  0  0  0  0
   16.0990    2.4420   -2.7638 C   0  0  0  0  0  0  0  0  0  0  0  0
   15.5701    2.3972   -3.7202 H   0  0  0  0  0  0  0  0  0  0  0  0
   17.1676    2.3039   -2.9525 H   0  0  0  0  0  0  0  0  0  0  0  0
   15.8783    3.8293   -2.1331 C   0  0  0  0  0  0  0  0  0  0  0  0
   16.3474    4.7946   -2.9656 F   0  0  0  0  0  0  0  0  0  0  0  0
   16.5433    3.9311   -0.9497 F   0  0  0  0  0  0  0  0  0  0  0  0
   14.5492    4.0458   -1.9331 F   0  0  0  0  0  0  0  0  0  0  0  0
   15.2803   -0.8869   -1.4797 C   0  0  0  0  0  0  0  0  0  0  0  0
   14.8465   -0.5606   -0.5392 H   0  0  0  0  0  0  0  0  0  0  0  0
   13.3789   -3.0713   -0.5106 C   0  0  0  0  0  0  0  0  0  0  0  0
   12.4666   -3.2725   -1.3116 O   0  0  0  0  0  0  0  0  0  0  0  0
   13.1800   -2.6246    0.7793 N   0  0  0  0  0  0  0  0  0  0  0  0
   11.9030   -2.2836    1.3880 C   0  0  0  0  0  0  0  0  0  0  0  0
   11.5004   -3.1460    1.9296 H   0  0  0  0  0  0  0  0  0  0  0  0
   11.1815   -1.9664    0.6259 H   0  0  0  0  0  0  0  0  0  0  0  0
   12.0290   -1.4583    2.0952 H   0  0  0  0  0  0  0  0  0  0  0  0
   14.4038   -2.5441    1.3963 C   0  0  0  0  0  0  0  0  0  0  0  0
   14.5670   -2.1074    2.6780 N   0  0  0  0  0  0  0  0  0  0  0  0
   15.5010   -2.1877    3.0666 H   0  0  0  0  0  0  0  0  0  0  0  0
   13.7716   -2.2291    3.3000 H   0  0  0  0  0  0  0  0  0  0  0  0
   15.3671   -2.8961    0.6116 N   0  0  0  0  0  4  0  0  0  0  0  0
   16.3556   -2.8136    0.8637 H   0  0  0  0  0  0  0  0  0  0  0  0
   14.3594   -5.5376   -1.7641 C   0  0  0  0  0  0  0  0  0  0  0  0
   13.4129   -5.1434   -2.1212 H   0  0  0  0  0  0  0  0  0  0  0  0
   14.6704   -6.8843   -1.9850 C   0  0  0  0  0  0  0  0  0  0  0  0
   13.9759   -7.5225   -2.5199 H   0  0  0  0  0  0  0  0  0  0  0  0
  1  2  1  0
  2  3  2  0
  3  4  1  0
  3  5  1  0
  5  6  1  0
  5  7  2  0
  7  8  1  0
  8  9  1  0
  9 10  2  0
 10 11  1  0
 10 12  1  0
 12 13  1  0
 12 14  2  0
 14 15  1  0
 14 16  1  0
 16 17  1  0
 17 18  1  0
 18 19  1  0
 18 20  1  0
 18 21  1  0
 21 22  1  0
 21 23  1  0
 21 24  1  0
 16 25  2  0
 25 26  1  0
  8 27  1  0
 27 28  2  0
 27 29  1  0
 29 30  1  0
 30 31  1  0
 30 32  1  0
 30 33  1  0
 29 34  1  0
 34 35  1  0
 35 36  1  0
 35 37  1  0
 34 38  2  0
 38 39  1  0
  7 40  1  0
 40 41  1  0
 40 42  2  0
 42 43  1  0
 42  2  1  0
 38  8  1  0
 25  9  1  0
M  CHG  1  38   1
M  END
>  <score>  (363) 
5.23216

$$$$

     RDKit          3D

 47 50  0  0  0  0  0  0  0  0999 V2000
    9.8709   -8.6810   -1.3693 H   0  0  0  0  0  0  0  0  0  0  0  0
   10.9001   -8.7729   -1.7106 C   0  0  0  0  0  0  0  0  0  0  0  0
   11.7588   -7.7857   -1.4334 N   0  0  0  0  0  0  0  0  0  0  0  0
   13.0321   -7.9390   -1.8343 C   0  0  0  0  0  0  0  0  0  0  0  0
   14.1243   -7.0164   -1.4802 C   0  0  0  0  0  0  0  0  0  0  0  0
   15.4210   -7.5320   -1.2675 C   0  0  0  0  0  0  0  0  0  0  0  0
   15.6088   -8.6010   -1.3498 H   0  0  0  0  0  0  0  0  0  0  0  0
   16.4889   -6.6994   -0.9437 C   0  0  0  0  0  0  0  0  0  0  0  0
   17.4785   -7.1214   -0.7944 H   0  0  0  0  0  0  0  0  0  0  0  0
   16.2713   -5.3312   -0.7838 C   0  0  0  0  0  0  0  0  0  0  0  0
   17.0923   -4.6882   -0.4823 H   0  0  0  0  0  0  0  0  0  0  0  0
   14.9933   -4.7887   -0.9659 C   0  0  0  0  0  0  0  0  0  0  0  0
   14.7558   -3.3170   -0.6838 C   0  0  0  0  0  0  0  0  0  0  0  0
   15.3416   -2.3633   -1.7170 C   0  0  0  0  0  0  0  0  0  0  0  0
   15.8783   -2.7896   -2.9454 C   0  0  0  0  0  0  0  0  0  0  0  0
   15.8980   -3.8459   -3.1923 H   0  0  0  0  0  0  0  0  0  0  0  0
   16.3857   -1.8626   -3.8729 C   0  0  0  0  0  0  0  0  0  0  0  0
   16.8000   -2.1964   -4.8186 H   0  0  0  0  0  0  0  0  0  0  0  0
   16.3577   -0.4926   -3.5861 C   0  0  0  0  0  0  0  0  0  0  0  0
   16.7714    0.2258   -4.2925 H   0  0  0  0  0  0  0  0  0  0  0  0
   15.8004   -0.0540   -2.3831 C   0  0  0  0  0  0  0  0  0  0  0  0
   15.7549    1.0083   -2.1537 H   0  0  0  0  0  0  0  0  0  0  0  0
   15.2948   -0.9820   -1.4649 C   0  0  0  0  0  0  0  0  0  0  0  0
   14.8535   -0.6247   -0.5411 H   0  0  0  0  0  0  0  0  0  0  0  0
   13.2727   -2.9881   -0.4462 C   0  0  0  0  0  0  0  0  0  0  0  0
   12.3665   -3.0981   -1.2679 O   0  0  0  0  0  0  0  0  0  0  0  0
   13.0895   -2.5899    0.8644 N   0  0  0  0  0  0  0  0  0  0  0  0
   11.8293   -2.2331    1.5118 C   0  0  0  0  0  0  0  0  0  0  0  0
   10.9906   -2.7633    1.0494 H   0  0  0  0  0  0  0  0  0  0  0  0
   11.8483   -2.5117    2.5715 H   0  0  0  0  0  0  0  0  0  0  0  0
   11.6476   -1.1539    1.4382 H   0  0  0  0  0  0  0  0  0  0  0  0
   14.3180   -2.6697    1.4768 C   0  0  0  0  0  0  0  0  0  0  0  0
   14.5572   -2.4505    2.7977 N   0  0  0  0  0  0  0  0  0  0  0  0
   13.8110   -2.0462    3.3599 H   0  0  0  0  0  0  0  0  0  0  0  0
   15.5246   -2.2898    3.0732 H   0  0  0  0  0  0  0  0  0  0  0  0
   15.2637   -3.0216    0.6715 N   0  0  0  0  0  4  0  0  0  0  0  0
   16.2270   -3.1810    0.9613 H   0  0  0  0  0  0  0  0  0  0  0  0
   13.9331   -5.6314   -1.3464 C   0  0  0  0  0  0  0  0  0  0  0  0
   12.9531   -5.2012   -1.5248 H   0  0  0  0  0  0  0  0  0  0  0  0
   13.4192   -8.9858   -2.5595 N   0  0  0  0  0  0  0  0  0  0  0  0
   12.5940   -9.9666   -2.9171 C   0  0  0  0  0  0  0  0  0  0  0  0
   13.2438  -11.0765   -3.7600 C   0  0  0  0  0  0  0  0  0  0  0  0
   14.1301  -11.6509   -2.9207 F   0  0  0  0  0  0  0  0  0  0  0  0
   13.8697  -10.5313   -4.8123 F   0  0  0  0  0  0  0  0  0  0  0  0
   12.4915  -12.0224   -4.3868 F   0  0  0  0  0  0  0  0  0  0  0  0
   11.2794   -9.9000   -2.4426 C   0  0  0  0  0  0  0  0  0  0  0  0
   10.5669  -10.6894   -2.6385 H   0  0  0  0  0  0  0  0  0  0  0  0
  1  2  1  0
  2  3  2  0
  3  4  1  0
  4  5  1  0
  5  6  2  0
  6  7  1  0
  6  8  1  0
  8  9  1  0
  8 10  2  0
 10 11  1  0
 10 12  1  0
 12 13  1  0
 13 14  1  0
 14 15  2  0
 15 16  1  0
 15 17  1  0
 17 18  1  0
 17 19  2  0
 19 20  1  0
 19 21  1  0
 21 22  1  0
 21 23  2  0
 23 24  1  0
 13 25  1  0
 25 26  2  0
 25 27  1  0
 27 28  1  0
 28 29  1  0
 28 30  1  0
 28 31  1  0
 27 32  1  0
 32 33  1  0
 33 34  1  0
 33 35  1  0
 32 36  2  0
 36 37  1  0
 12 38  2  0
 38 39  1  0
  4 40  2  0
 40 41  1  0
 41 42  1  0
 42 43  1  0
 42 44  1  0
 42 45  1  0
 41 46  2  0
 46 47  1  0
 46  2  1  0
 38  5  1  0
 36 13  1  0
 23 14  1  0
M  CHG  1  36   1
M  END
>  <score>  (364) 
5.22822

$$$$

     RDKit          3D

 50 53  0  0  0  0  0  0  0  0999 V2000
    8.4502  -11.2607   -3.0326 H   0  0  0  0  0  0  0  0  0  0  0  0
    9.4194  -10.8378   -2.7814 C   0  0  0  0  0  0  0  0  0  0  0  0
   10.5793  -11.3869   -3.3207 C   0  0  0  0  0  0  0  0  0  0  0  0
   10.5160  -12.2261   -4.0098 H   0  0  0  0  0  0  0  0  0  0  0  0
   11.8266  -10.8340   -3.0091 C   0  0  0  0  0  0  0  0  0  0  0  0
   12.7135  -11.2693   -3.4564 H   0  0  0  0  0  0  0  0  0  0  0  0
   11.9347   -9.6772   -2.2210 C   0  0  0  0  0  0  0  0  0  0  0  0
   13.2474   -9.0554   -1.9768 C   0  0  0  0  0  0  0  0  0  0  0  0
   14.2718   -9.7302   -1.9682 O   0  0  0  0  0  0  0  0  0  0  0  0
   13.2812   -7.6812   -1.8420 N   0  0  0  0  0  0  0  0  0  0  0  0
   12.3849   -7.2177   -1.9150 H   0  0  0  0  0  0  0  0  0  0  0  0
   14.3715   -6.8898   -1.5080 C   0  0  0  0  0  0  0  0  0  0  0  0
   15.6516   -7.4136   -1.3179 C   0  0  0  0  0  0  0  0  0  0  0  0
   15.8337   -8.4682   -1.4855 H   0  0  0  0  0  0  0  0  0  0  0  0
   16.6926   -6.5791   -0.8986 C   0  0  0  0  0  0  0  0  0  0  0  0
   17.6748   -6.9967   -0.7098 H   0  0  0  0  0  0  0  0  0  0  0  0
   16.4558   -5.2168   -0.6719 C   0  0  0  0  0  0  0  0  0  0  0  0
   17.2519   -4.5900   -0.2808 H   0  0  0  0  0  0  0  0  0  0  0  0
   15.1872   -4.6615   -0.9096 C   0  0  0  0  0  0  0  0  0  0  0  0
   14.9109   -3.1858   -0.6282 C   0  0  0  0  0  0  0  0  0  0  0  0
   15.4862   -2.2059   -1.6507 C   0  0  0  0  0  0  0  0  0  0  0  0
   16.0031   -2.6320   -2.8879 C   0  0  0  0  0  0  0  0  0  0  0  0
   16.0586   -3.6914   -3.1222 H   0  0  0  0  0  0  0  0  0  0  0  0
   16.4466   -1.6997   -3.8370 C   0  0  0  0  0  0  0  0  0  0  0  0
   16.8399   -2.0255   -4.7932 H   0  0  0  0  0  0  0  0  0  0  0  0
   16.3835   -0.3312   -3.5650 C   0  0  0  0  0  0  0  0  0  0  0  0
   16.7101    0.3940   -4.3049 H   0  0  0  0  0  0  0  0  0  0  0  0
   15.8821    0.1066   -2.3390 C   0  0  0  0  0  0  0  0  0  0  0  0
   15.8336    1.1676   -2.1166 H   0  0  0  0  0  0  0  0  0  0  0  0
   15.4357   -0.8212   -1.3921 C   0  0  0  0  0  0  0  0  0  0  0  0
   15.0413   -0.4662   -0.4436 H   0  0  0  0  0  0  0  0  0  0  0  0
   13.4022   -2.9251   -0.4204 C   0  0  0  0  0  0  0  0  0  0  0  0
   12.4985   -3.0886   -1.2387 O   0  0  0  0  0  0  0  0  0  0  0  0
   13.1853   -2.5101    0.8773 N   0  0  0  0  0  0  0  0  0  0  0  0
   11.9223   -2.1631    1.5274 C   0  0  0  0  0  0  0  0  0  0  0  0
   11.7984   -2.7385    2.4538 H   0  0  0  0  0  0  0  0  0  0  0  0
   11.9193   -1.0966    1.7797 H   0  0  0  0  0  0  0  0  0  0  0  0
   11.0628   -2.3744    0.8824 H   0  0  0  0  0  0  0  0  0  0  0  0
   14.4064   -2.4712    1.4960 C   0  0  0  0  0  0  0  0  0  0  0  0
   14.5670   -2.0619    2.7807 N   0  0  0  0  0  0  0  0  0  0  0  0
   15.4557   -2.2541    3.2347 H   0  0  0  0  0  0  0  0  0  0  0  0
   13.7352   -1.9448    3.3519 H   0  0  0  0  0  0  0  0  0  0  0  0
   15.3760   -2.8480    0.7300 N   0  0  0  0  0  4  0  0  0  0  0  0
   16.3467   -2.9248    1.0338 H   0  0  0  0  0  0  0  0  0  0  0  0
   14.1576   -5.5187   -1.3470 C   0  0  0  0  0  0  0  0  0  0  0  0
   13.1678   -5.1236   -1.5588 H   0  0  0  0  0  0  0  0  0  0  0  0
   10.7515   -9.1127   -1.7121 C   0  0  0  0  0  0  0  0  0  0  0  0
   10.7981   -8.2016   -1.1229 H   0  0  0  0  0  0  0  0  0  0  0  0
    9.5089   -9.7214   -1.9424 C   0  0  0  0  0  0  0  0  0  0  0  0
    8.6112   -9.3295   -1.4801 H   0  0  0  0  0  0  0  0  0  0  0  0
  1  2  1  0
  2  3  2  0
  3  4  1  0
  3  5  1  0
  5  6  1  0
  5  7  2  0
  7  8  1  0
  8  9  2  0
  8 10  1  0
 10 11  1  0
 10 12  1  0
 12 13  2  0
 13 14  1  0
 13 15  1  0
 15 16  1  0
 15 17  2  0
 17 18  1  0
 17 19  1  0
 19 20  1  0
 20 21  1  0
 21 22  2  0
 22 23  1  0
 22 24  1  0
 24 25  1  0
 24 26  2  0
 26 27  1  0
 26 28  1  0
 28 29  1  0
 28 30  2  0
 30 31  1  0
 20 32  1  0
 32 33  2  0
 32 34  1  0
 34 35  1  0
 35 36  1  0
 35 37  1  0
 35 38  1  0
 34 39  1  0
 39 40  1  0
 40 41  1  0
 40 42  1  0
 39 43  2  0
 43 44  1  0
 19 45  2  0
 45 46  1  0
  7 47  1  0
 47 48  1  0
 47 49  2  0
 49 50  1  0
 49  2  1  0
 45 12  1  0
 43 20  1  0
 30 21  1  0
M  CHG  1  43   1
M  END
>  <score>  (365) 
5.22474

$$$$

     RDKit          3D

 43 46  0  0  0  0  0  0  0  0999 V2000
   16.1055   -8.4380   -1.6622 H   0  0  0  0  0  0  0  0  0  0  0  0
   15.8625   -7.3885   -1.5162 C   0  0  0  0  0  0  0  0  0  0  0  0
   16.7576   -6.5569   -0.8358 C   0  0  0  0  0  0  0  0  0  0  0  0
   17.6912   -6.9454   -0.4394 H   0  0  0  0  0  0  0  0  0  0  0  0
   16.4380   -5.2146   -0.6278 C   0  0  0  0  0  0  0  0  0  0  0  0
   17.1214   -4.5775   -0.0737 H   0  0  0  0  0  0  0  0  0  0  0  0
   15.2201   -4.6775   -1.0714 C   0  0  0  0  0  0  0  0  0  0  0  0
   14.8773   -3.2300   -0.7436 C   0  0  0  0  0  0  0  0  0  0  0  0
   15.4162   -2.2353   -1.7671 C   0  0  0  0  0  0  0  0  0  0  0  0
   15.9579   -2.6461   -2.9993 C   0  0  0  0  0  0  0  0  0  0  0  0
   16.0106   -3.7028   -3.2452 H   0  0  0  0  0  0  0  0  0  0  0  0
   16.4370   -1.7083   -3.9237 C   0  0  0  0  0  0  0  0  0  0  0  0
   16.8494   -2.0317   -4.8741 H   0  0  0  0  0  0  0  0  0  0  0  0
   16.3707   -0.3432   -3.6360 C   0  0  0  0  0  0  0  0  0  0  0  0
   16.7248    0.3825   -4.3622 H   0  0  0  0  0  0  0  0  0  0  0  0
   15.8229    0.0981   -2.4288 C   0  0  0  0  0  0  0  0  0  0  0  0
   15.7492    1.5805   -2.1392 C   0  0  0  0  0  0  0  0  0  0  0  0
   16.1527    2.2294   -2.9243 H   0  0  0  0  0  0  0  0  0  0  0  0
   15.9310    2.0577   -0.6986 C   0  0  0  0  0  0  0  0  0  0  0  0
   16.4522    3.0073   -0.5318 H   0  0  0  0  0  0  0  0  0  0  0  0
   16.0912    1.3061    0.0837 H   0  0  0  0  0  0  0  0  0  0  0  0
   14.5554    2.1224   -1.3529 C   0  0  0  0  0  0  0  0  0  0  0  0
   13.7926    1.4148   -1.0068 H   0  0  0  0  0  0  0  0  0  0  0  0
   14.1720    3.1159   -1.6126 H   0  0  0  0  0  0  0  0  0  0  0  0
   15.3474   -0.8526   -1.5107 C   0  0  0  0  0  0  0  0  0  0  0  0
   14.9267   -0.5016   -0.5750 H   0  0  0  0  0  0  0  0  0  0  0  0
   13.3733   -2.9900   -0.5033 C   0  0  0  0  0  0  0  0  0  0  0  0
   12.4625   -3.1134   -1.3173 O   0  0  0  0  0  0  0  0  0  0  0  0
   13.1803   -2.5909    0.8008 N   0  0  0  0  0  0  0  0  0  0  0  0
   11.8958   -2.2954    1.4142 C   0  0  0  0  0  0  0  0  0  0  0  0
   11.6927   -1.2273    1.3102 H   0  0  0  0  0  0  0  0  0  0  0  0
   11.1032   -2.8520    0.9080 H   0  0  0  0  0  0  0  0  0  0  0  0
   11.8792   -2.5717    2.4747 H   0  0  0  0  0  0  0  0  0  0  0  0
   14.3978   -2.6377    1.4292 C   0  0  0  0  0  0  0  0  0  0  0  0
   14.5812   -2.4552    2.7683 N   0  0  0  0  0  0  0  0  0  0  0  0
   13.8805   -1.9338    3.2931 H   0  0  0  0  0  0  0  0  0  0  0  0
   15.5374   -2.4614    3.1108 H   0  0  0  0  0  0  0  0  0  0  0  0
   15.3661   -2.9234    0.6238 N   0  0  0  0  0  4  0  0  0  0  0  0
   16.3157   -3.1354    0.9335 H   0  0  0  0  0  0  0  0  0  0  0  0
   14.3325   -5.5158   -1.7719 C   0  0  0  0  0  0  0  0  0  0  0  0
   13.3819   -5.1232   -2.1226 H   0  0  0  0  0  0  0  0  0  0  0  0
   14.6502   -6.8666   -1.9874 C   0  0  0  0  0  0  0  0  0  0  0  0
   13.9475   -7.5134   -2.5062 H   0  0  0  0  0  0  0  0  0  0  0  0
  1  2  1  0
  2  3  2  0
  3  4  1  0
  3  5  1  0
  5  6  1  0
  5  7  2  0
  7  8  1  0
  8  9  1  0
  9 10  2  0
 10 11  1  0
 10 12  1  0
 12 13  1  0
 12 14  2  0
 14 15  1  0
 14 16  1  0
 16 17  1  0
 17 18  1  0
 17 19  1  0
 19 20  1  0
 19 21  1  0
 19 22  1  0
 22 23  1  0
 22 24  1  0
 16 25  2  0
 25 26  1  0
  8 27  1  0
 27 28  2  0
 27 29  1  0
 29 30  1  0
 30 31  1  0
 30 32  1  0
 30 33  1  0
 29 34  1  0
 34 35  1  0
 35 36  1  0
 35 37  1  0
 34 38  2  0
 38 39  1  0
  7 40  1  0
 40 41  1  0
 40 42  2  0
 42 43  1  0
 42  2  1  0
 38  8  1  0
 25  9  1  0
 22 17  1  0
M  CHG  1  38   1
M  END
>  <score>  (366) 
5.22078

$$$$

     RDKit          3D

 45 47  0  0  0  0  0  0  0  0999 V2000
   16.0976   -8.4242   -1.6572 H   0  0  0  0  0  0  0  0  0  0  0  0
   15.8608   -7.3785   -1.4929 C   0  0  0  0  0  0  0  0  0  0  0  0
   16.7604   -6.5557   -0.8052 C   0  0  0  0  0  0  0  0  0  0  0  0
   17.6989   -6.9547   -0.4308 H   0  0  0  0  0  0  0  0  0  0  0  0
   16.4474   -5.2137   -0.5826 C   0  0  0  0  0  0  0  0  0  0  0  0
   17.1469   -4.5792   -0.0440 H   0  0  0  0  0  0  0  0  0  0  0  0
   15.2246   -4.6836   -1.0239 C   0  0  0  0  0  0  0  0  0  0  0  0
   14.8466   -3.2511   -0.7171 C   0  0  0  0  0  0  0  0  0  0  0  0
   15.3641   -2.2506   -1.7342 C   0  0  0  0  0  0  0  0  0  0  0  0
   15.9516   -2.6329   -2.9555 C   0  0  0  0  0  0  0  0  0  0  0  0
   16.0532   -3.6892   -3.1907 H   0  0  0  0  0  0  0  0  0  0  0  0
   16.3915   -1.6665   -3.8681 C   0  0  0  0  0  0  0  0  0  0  0  0
   16.8615   -1.9647   -4.7991 H   0  0  0  0  0  0  0  0  0  0  0  0
   16.2122   -0.3066   -3.5869 C   0  0  0  0  0  0  0  0  0  0  0  0
   16.5438    0.4497   -4.2915 H   0  0  0  0  0  0  0  0  0  0  0  0
   15.5748    0.0780   -2.4043 C   0  0  0  0  0  0  0  0  0  0  0  0
   15.2562    1.5135   -2.1178 C   0  0  0  0  0  0  0  0  0  0  0  0
   14.2968    1.5626   -1.5892 H   0  0  0  0  0  0  0  0  0  0  0  0
   15.1655    2.0699   -3.0510 H   0  0  0  0  0  0  0  0  0  0  0  0
   16.3557    2.1487   -1.2773 C   0  0  0  0  0  0  0  0  0  0  0  0
   16.6896    1.4427   -0.5146 H   0  0  0  0  0  0  0  0  0  0  0  0
   15.9642    3.0283   -0.7616 H   0  0  0  0  0  0  0  0  0  0  0  0
   17.5258    2.5406   -2.1706 C   0  0  0  0  0  0  0  0  0  0  0  0
   18.3201    3.0304   -1.5943 H   0  0  0  0  0  0  0  0  0  0  0  0
   17.9321    1.6516   -2.6493 H   0  0  0  0  0  0  0  0  0  0  0  0
   17.1874    3.2109   -2.9682 H   0  0  0  0  0  0  0  0  0  0  0  0
   15.1797   -0.8864   -1.4809 C   0  0  0  0  0  0  0  0  0  0  0  0
   14.7018   -0.5591   -0.5611 H   0  0  0  0  0  0  0  0  0  0  0  0
   13.3263   -3.0704   -0.5393 C   0  0  0  0  0  0  0  0  0  0  0  0
   12.4595   -3.2180   -1.4014 O   0  0  0  0  0  0  0  0  0  0  0  0
   13.0592   -2.6716    0.7519 N   0  0  0  0  0  0  0  0  0  0  0  0
   11.7542   -2.3063    1.3002 C   0  0  0  0  0  0  0  0  0  0  0  0
   11.7407   -1.2458    1.5748 H   0  0  0  0  0  0  0  0  0  0  0  0
   11.5286   -2.9050    2.1900 H   0  0  0  0  0  0  0  0  0  0  0  0
   10.9591   -2.4783    0.5636 H   0  0  0  0  0  0  0  0  0  0  0  0
   14.2683   -2.5901    1.4119 C   0  0  0  0  0  0  0  0  0  0  0  0
   14.4495   -2.2264    2.7092 N   0  0  0  0  0  0  0  0  0  0  0  0
   13.6392   -2.1065    3.3155 H   0  0  0  0  0  0  0  0  0  0  0  0
   15.3870   -2.2868    3.1088 H   0  0  0  0  0  0  0  0  0  0  0  0
   15.2675   -2.9077    0.6578 N   0  0  0  0  0  4  0  0  0  0  0  0
   16.2270   -2.9987    0.9970 H   0  0  0  0  0  0  0  0  0  0  0  0
   14.3405   -5.5110   -1.7344 C   0  0  0  0  0  0  0  0  0  0  0  0
   13.3977   -5.1090   -2.0948 H   0  0  0  0  0  0  0  0  0  0  0  0
   14.6538   -6.8514   -1.9671 C   0  0  0  0  0  0  0  0  0  0  0  0
   13.9513   -7.4803   -2.5057 H   0  0  0  0  0  0  0  0  0  0  0  0
  1  2  1  0
  2  3  2  0
  3  4  1  0
  3  5  1  0
  5  6  1  0
  5  7  2  0
  7  8  1  0
  8  9  1  0
  9 10  2  0
 10 11  1  0
 10 12  1  0
 12 13  1  0
 12 14  2  0
 14 15  1  0
 14 16  1  0
 16 17  1  0
 17 18  1  0
 17 19  1  0
 17 20  1  0
 20 21  1  0
 20 22  1  0
 20 23  1  0
 23 24  1  0
 23 25  1  0
 23 26  1  0
 16 27  2  0
 27 28  1  0
  8 29  1  0
 29 30  2  0
 29 31  1  0
 31 32  1  0
 32 33  1  0
 32 34  1  0
 32 35  1  0
 31 36  1  0
 36 37  1  0
 37 38  1  0
 37 39  1  0
 36 40  2  0
 40 41  1  0
  7 42  1  0
 42 43  1  0
 42 44  2  0
 44 45  1  0
 44  2  1  0
 40  8  1  0
 27  9  1  0
M  CHG  1  40   1
M  END
>  <score>  (367) 
5.21119

$$$$

     RDKit          3D

 40 42  0  0  0  0  0  0  0  0999 V2000
   16.1108   -8.4593   -1.6180 H   0  0  0  0  0  0  0  0  0  0  0  0
   15.8535   -7.4130   -1.4756 C   0  0  0  0  0  0  0  0  0  0  0  0
   16.7320   -6.5676   -0.7943 C   0  0  0  0  0  0  0  0  0  0  0  0
   17.6765   -6.9484   -0.4183 H   0  0  0  0  0  0  0  0  0  0  0  0
   16.3987   -5.2239   -0.5860 C   0  0  0  0  0  0  0  0  0  0  0  0
   17.0883   -4.5777   -0.0535 H   0  0  0  0  0  0  0  0  0  0  0  0
   15.1800   -4.6894   -1.0345 C   0  0  0  0  0  0  0  0  0  0  0  0
   14.8324   -3.2144   -0.7431 C   0  0  0  0  0  0  0  0  0  0  0  0
   15.3907   -2.2255   -1.7668 C   0  0  0  0  0  0  0  0  0  0  0  0
   15.9375   -2.6284   -2.9996 C   0  0  0  0  0  0  0  0  0  0  0  0
   15.9985   -3.6837   -3.2501 H   0  0  0  0  0  0  0  0  0  0  0  0
   16.4149   -1.6763   -3.9134 C   0  0  0  0  0  0  0  0  0  0  0  0
   16.8480   -1.9944   -4.8581 H   0  0  0  0  0  0  0  0  0  0  0  0
   16.3412   -0.3079   -3.6096 C   0  0  0  0  0  0  0  0  0  0  0  0
   16.7072    0.4305   -4.3149 H   0  0  0  0  0  0  0  0  0  0  0  0
   15.7840    0.1194   -2.3935 C   0  0  0  0  0  0  0  0  0  0  0  0
   15.6559    1.4310   -1.9997 O   0  0  0  0  0  0  0  0  0  0  0  0
   16.1158    2.4596   -2.8842 C   0  0  0  0  0  0  0  0  0  0  0  0
   15.9433    3.4346   -2.4209 H   0  0  0  0  0  0  0  0  0  0  0  0
   15.5757    2.4360   -3.8336 H   0  0  0  0  0  0  0  0  0  0  0  0
   17.1854    2.3629   -3.0793 H   0  0  0  0  0  0  0  0  0  0  0  0
   15.3150   -0.8463   -1.5007 C   0  0  0  0  0  0  0  0  0  0  0  0
   14.8916   -0.5033   -0.5624 H   0  0  0  0  0  0  0  0  0  0  0  0
   13.3072   -3.0091   -0.6000 C   0  0  0  0  0  0  0  0  0  0  0  0
   12.4357   -3.1207   -1.4604 O   0  0  0  0  0  0  0  0  0  0  0  0
   13.0127   -2.6282    0.6924 N   0  0  0  0  0  0  0  0  0  0  0  0
   11.7025   -2.3030    1.2632 C   0  0  0  0  0  0  0  0  0  0  0  0
   10.9140   -2.4220    0.5165 H   0  0  0  0  0  0  0  0  0  0  0  0
   11.4641   -2.9527    2.1142 H   0  0  0  0  0  0  0  0  0  0  0  0
   11.6859   -1.2667    1.6195 H   0  0  0  0  0  0  0  0  0  0  0  0
   14.1895   -2.6136    1.3863 C   0  0  0  0  0  0  0  0  0  0  0  0
   14.1557   -2.4646    2.7411 N   0  0  0  0  0  0  0  0  0  0  0  0
   14.2320   -1.4918    3.0231 H   0  0  0  0  0  0  0  0  0  0  0  0
   13.3613   -2.9309    3.1722 H   0  0  0  0  0  0  0  0  0  0  0  0
   15.2290   -2.8141    0.6378 N   0  0  0  0  0  4  0  0  0  0  0  0
   16.1727   -2.9453    1.0102 H   0  0  0  0  0  0  0  0  0  0  0  0
   14.3090   -5.5548   -1.7453 C   0  0  0  0  0  0  0  0  0  0  0  0
   13.3606   -5.1941   -2.1354 H   0  0  0  0  0  0  0  0  0  0  0  0
   14.6451   -6.9044   -1.9605 C   0  0  0  0  0  0  0  0  0  0  0  0
   13.9667   -7.5710   -2.4874 H   0  0  0  0  0  0  0  0  0  0  0  0
  1  2  1  0
  2  3  2  0
  3  4  1  0
  3  5  1  0
  5  6  1  0
  5  7  2  0
  7  8  1  0
  8  9  1  0
  9 10  2  0
 10 11  1  0
 10 12  1  0
 12 13  1  0
 12 14  2  0
 14 15  1  0
 14 16  1  0
 16 17  1  0
 17 18  1  0
 18 19  1  0
 18 20  1  0
 18 21  1  0
 16 22  2  0
 22 23  1  0
  8 24  1  0
 24 25  2  0
 24 26  1  0
 26 27  1  0
 27 28  1  0
 27 29  1  0
 27 30  1  0
 26 31  1  0
 31 32  1  0
 32 33  1  0
 32 34  1  0
 31 35  2  0
 35 36  1  0
  7 37  1  0
 37 38  1  0
 37 39  2  0
 39 40  1  0
 39  2  1  0
 35  8  1  0
 22  9  1  0
M  CHG  1  35   1
M  END
>  <score>  (368) 
5.20662

$$$$

     RDKit          3D

 40 42  0  0  0  0  0  0  0  0999 V2000
   16.1178   -8.4835   -1.6118 H   0  0  0  0  0  0  0  0  0  0  0  0
   15.8547   -7.4362   -1.4740 C   0  0  0  0  0  0  0  0  0  0  0  0
   16.7318   -6.5789   -0.8051 C   0  0  0  0  0  0  0  0  0  0  0  0
   17.6716   -6.9575   -0.4150 H   0  0  0  0  0  0  0  0  0  0  0  0
   16.3933   -5.2348   -0.6101 C   0  0  0  0  0  0  0  0  0  0  0  0
   17.0680   -4.5842   -0.0617 H   0  0  0  0  0  0  0  0  0  0  0  0
   15.1774   -4.7107   -1.0784 C   0  0  0  0  0  0  0  0  0  0  0  0
   14.8174   -3.2463   -0.7834 C   0  0  0  0  0  0  0  0  0  0  0  0
   15.3821   -2.2242   -1.7687 C   0  0  0  0  0  0  0  0  0  0  0  0
   15.9372   -2.6270   -2.9949 C   0  0  0  0  0  0  0  0  0  0  0  0
   15.9987   -3.6822   -3.2483 H   0  0  0  0  0  0  0  0  0  0  0  0
   16.4157   -1.6814   -3.9048 C   0  0  0  0  0  0  0  0  0  0  0  0
   16.8478   -1.9909   -4.8491 H   0  0  0  0  0  0  0  0  0  0  0  0
   16.3364   -0.3224   -3.6029 C   0  0  0  0  0  0  0  0  0  0  0  0
   16.6955    0.4244   -4.3006 H   0  0  0  0  0  0  0  0  0  0  0  0
   15.7913    0.1197   -2.4015 C   0  0  0  0  0  0  0  0  0  0  0  0
   15.7723    1.4809   -2.2224 O   0  0  0  0  0  0  0  0  0  0  0  0
   15.2302    2.0180   -1.0034 C   0  0  0  0  0  0  0  0  0  0  0  0
   15.3244    3.3674   -1.0681 F   0  0  0  0  0  0  0  0  0  0  0  0
   15.9317    1.6199    0.0912 F   0  0  0  0  0  0  0  0  0  0  0  0
   13.9100    1.7252   -0.8750 F   0  0  0  0  0  0  0  0  0  0  0  0
   15.3133   -0.8353   -1.4847 C   0  0  0  0  0  0  0  0  0  0  0  0
   14.8862   -0.4967   -0.5449 H   0  0  0  0  0  0  0  0  0  0  0  0
   13.3024   -3.0304   -0.5997 C   0  0  0  0  0  0  0  0  0  0  0  0
   12.4361   -3.0935   -1.4701 O   0  0  0  0  0  0  0  0  0  0  0  0
   13.0235   -2.6777    0.7041 N   0  0  0  0  0  0  0  0  0  0  0  0
   11.7188   -2.3128    1.2656 C   0  0  0  0  0  0  0  0  0  0  0  0
   11.5036   -2.9186    2.1520 H   0  0  0  0  0  0  0  0  0  0  0  0
   10.9105   -2.4755    0.5394 H   0  0  0  0  0  0  0  0  0  0  0  0
   11.6974   -1.2569    1.5591 H   0  0  0  0  0  0  0  0  0  0  0  0
   14.2304   -2.6284    1.3652 C   0  0  0  0  0  0  0  0  0  0  0  0
   14.3972   -2.3274    2.6850 N   0  0  0  0  0  0  0  0  0  0  0  0
   15.3359   -2.3506    3.0875 H   0  0  0  0  0  0  0  0  0  0  0  0
   13.5831   -2.1255    3.2608 H   0  0  0  0  0  0  0  0  0  0  0  0
   15.2242   -2.9059    0.5958 N   0  0  0  0  0  4  0  0  0  0  0  0
   16.1927   -2.9196    0.9150 H   0  0  0  0  0  0  0  0  0  0  0  0
   14.3064   -5.5835   -1.7688 C   0  0  0  0  0  0  0  0  0  0  0  0
   13.3543   -5.2254   -2.1499 H   0  0  0  0  0  0  0  0  0  0  0  0
   14.6440   -6.9353   -1.9622 C   0  0  0  0  0  0  0  0  0  0  0  0
   13.9708   -7.6072   -2.4877 H   0  0  0  0  0  0  0  0  0  0  0  0
  1  2  1  0
  2  3  2  0
  3  4  1  0
  3  5  1  0
  5  6  1  0
  5  7  2  0
  7  8  1  0
  8  9  1  0
  9 10  2  0
 10 11  1  0
 10 12  1  0
 12 13  1  0
 12 14  2  0
 14 15  1  0
 14 16  1  0
 16 17  1  0
 17 18  1  0
 18 19  1  0
 18 20  1  0
 18 21  1  0
 16 22  2  0
 22 23  1  0
  8 24  1  0
 24 25  2  0
 24 26  1  0
 26 27  1  0
 27 28  1  0
 27 29  1  0
 27 30  1  0
 26 31  1  0
 31 32  1  0
 32 33  1  0
 32 34  1  0
 31 35  2  0
 35 36  1  0
  7 37  1  0
 37 38  1  0
 37 39  2  0
 39 40  1  0
 39  2  1  0
 35  8  1  0
 22  9  1  0
M  CHG  1  35   1
M  END
>  <score>  (369) 
5.20644

$$$$

     RDKit          3D

 56 60  0  0  0  0  0  0  0  0999 V2000
    5.9293   -8.3726   -2.0947 H   0  0  0  0  0  0  0  0  0  0  0  0
    7.0107   -8.4650   -2.0620 C   0  0  0  0  0  0  0  0  0  0  0  0
    7.7906   -7.3894   -1.6255 C   0  0  0  0  0  0  0  0  0  0  0  0
    7.3266   -6.4638   -1.2965 H   0  0  0  0  0  0  0  0  0  0  0  0
    9.1843   -7.4887   -1.6490 C   0  0  0  0  0  0  0  0  0  0  0  0
    9.7937   -6.6639   -1.3014 H   0  0  0  0  0  0  0  0  0  0  0  0
    9.8154   -8.6385   -2.1408 C   0  0  0  0  0  0  0  0  0  0  0  0
   11.2757   -8.7091   -2.2836 C   0  0  0  0  0  0  0  0  0  0  0  0
   11.8410   -9.8570   -2.8599 C   0  0  0  0  0  0  0  0  0  0  0  0
   11.2130  -10.6713   -3.2076 H   0  0  0  0  0  0  0  0  0  0  0  0
   13.2138   -9.9857   -3.0031 C   0  0  0  0  0  0  0  0  0  0  0  0
   13.6201  -10.8984   -3.4304 H   0  0  0  0  0  0  0  0  0  0  0  0
   14.0398   -8.9527   -2.5710 C   0  0  0  0  0  0  0  0  0  0  0  0
   15.1122   -9.0616   -2.6357 H   0  0  0  0  0  0  0  0  0  0  0  0
   13.5317   -7.7667   -2.0227 C   0  0  0  0  0  0  0  0  0  0  0  0
   14.5176   -6.7436   -1.5752 C   0  0  0  0  0  0  0  0  0  0  0  0
   15.8210   -7.1738   -1.2615 C   0  0  0  0  0  0  0  0  0  0  0  0
   16.0738   -8.2213   -1.3799 H   0  0  0  0  0  0  0  0  0  0  0  0
   16.7855   -6.3008   -0.7610 C   0  0  0  0  0  0  0  0  0  0  0  0
   17.7807   -6.6656   -0.5204 H   0  0  0  0  0  0  0  0  0  0  0  0
   16.4622   -4.9623   -0.5685 C   0  0  0  0  0  0  0  0  0  0  0  0
   17.2187   -4.2922   -0.1720 H   0  0  0  0  0  0  0  0  0  0  0  0
   15.1821   -4.4809   -0.8759 C   0  0  0  0  0  0  0  0  0  0  0  0
   14.8621   -3.0157   -0.6180 C   0  0  0  0  0  0  0  0  0  0  0  0
   15.4421   -2.0743   -1.6664 C   0  0  0  0  0  0  0  0  0  0  0  0
   15.9577   -2.5552   -2.8832 C   0  0  0  0  0  0  0  0  0  0  0  0
   15.9883   -3.6243   -3.0730 H   0  0  0  0  0  0  0  0  0  0  0  0
   16.4253   -1.6708   -3.8627 C   0  0  0  0  0  0  0  0  0  0  0  0
   16.8194   -2.0504   -4.7988 H   0  0  0  0  0  0  0  0  0  0  0  0
   16.3810   -0.2912   -3.6430 C   0  0  0  0  0  0  0  0  0  0  0  0
   16.7377    0.3961   -4.4054 H   0  0  0  0  0  0  0  0  0  0  0  0
   15.8669    0.2019   -2.4403 C   0  0  0  0  0  0  0  0  0  0  0  0
   15.8228    1.2721   -2.2604 H   0  0  0  0  0  0  0  0  0  0  0  0
   15.4004   -0.6839   -1.4617 C   0  0  0  0  0  0  0  0  0  0  0  0
   14.9940   -0.2927   -0.5328 H   0  0  0  0  0  0  0  0  0  0  0  0
   13.3502   -2.7848   -0.4543 C   0  0  0  0  0  0  0  0  0  0  0  0
   12.4836   -2.9129   -1.3160 O   0  0  0  0  0  0  0  0  0  0  0  0
   13.0823   -2.4434    0.8551 N   0  0  0  0  0  0  0  0  0  0  0  0
   11.7578   -2.2233    1.4336 C   0  0  0  0  0  0  0  0  0  0  0  0
   11.6459   -1.1772    1.7369 H   0  0  0  0  0  0  0  0  0  0  0  0
   11.6049   -2.8635    2.3101 H   0  0  0  0  0  0  0  0  0  0  0  0
   10.9700   -2.4524    0.7049 H   0  0  0  0  0  0  0  0  0  0  0  0
   14.2851   -2.4511    1.5275 C   0  0  0  0  0  0  0  0  0  0  0  0
   14.4410   -2.3062    2.8719 N   0  0  0  0  0  0  0  0  0  0  0  0
   13.6413   -1.9935    3.4205 H   0  0  0  0  0  0  0  0  0  0  0  0
   15.3847   -2.1700    3.2313 H   0  0  0  0  0  0  0  0  0  0  0  0
   15.2965   -2.6637    0.7504 N   0  0  0  0  0  4  0  0  0  0  0  0
   16.2363   -2.8529    1.1045 H   0  0  0  0  0  0  0  0  0  0  0  0
   14.2205   -5.3750   -1.4033 C   0  0  0  0  0  0  0  0  0  0  0  0
   13.2375   -4.9952   -1.6633 H   0  0  0  0  0  0  0  0  0  0  0  0
   12.1293   -7.6556   -1.8825 C   0  0  0  0  0  0  0  0  0  0  0  0
   11.6932   -6.7681   -1.4366 H   0  0  0  0  0  0  0  0  0  0  0  0
    9.0204   -9.7296   -2.5246 C   0  0  0  0  0  0  0  0  0  0  0  0
    9.4814  -10.6446   -2.8830 H   0  0  0  0  0  0  0  0  0  0  0  0
    7.6292   -9.6453   -2.4852 C   0  0  0  0  0  0  0  0  0  0  0  0
    7.0294  -10.4878   -2.8117 H   0  0  0  0  0  0  0  0  0  0  0  0
  1  2  1  0
  2  3  2  0
  3  4  1  0
  3  5  1  0
  5  6  1  0
  5  7  2  0
  7  8  1  0
  8  9  2  0
  9 10  1  0
  9 11  1  0
 11 12  1  0
 11 13  2  0
 13 14  1  0
 13 15  1  0
 15 16  1  0
 16 17  2  0
 17 18  1  0
 17 19  1  0
 19 20  1  0
 19 21  2  0
 21 22  1  0
 21 23  1  0
 23 24  1  0
 24 25  1  0
 25 26  2  0
 26 27  1  0
 26 28  1  0
 28 29  1  0
 28 30  2  0
 30 31  1  0
 30 32  1  0
 32 33  1  0
 32 34  2  0
 34 35  1  0
 24 36  1  0
 36 37  2  0
 36 38  1  0
 38 39  1  0
 39 40  1  0
 39 41  1  0
 39 42  1  0
 38 43  1  0
 43 44  1  0
 44 45  1  0
 44 46  1  0
 43 47  2  0
 47 48  1  0
 23 49  2  0
 49 50  1  0
 15 51  2  0
 51 52  1  0
  7 53  1  0
 53 54  1  0
 53 55  2  0
 55 56  1  0
 55  2  1  0
 51  8  1  0
 49 16  1  0
 47 24  1  0
 34 25  1  0
M  CHG  1  47   1
M  END
>  <score>  (370) 
5.20616

$$$$

     RDKit          3D

 53 56  0  0  0  0  0  0  0  0999 V2000
    8.4785   -9.1625    2.5569 H   0  0  0  0  0  0  0  0  0  0  0  0
    9.3169   -9.1317    1.8692 C   0  0  0  0  0  0  0  0  0  0  0  0
    9.6344   -7.9483    1.2013 C   0  0  0  0  0  0  0  0  0  0  0  0
    9.0244   -7.0640    1.3579 H   0  0  0  0  0  0  0  0  0  0  0  0
   10.7267   -7.9040    0.3294 C   0  0  0  0  0  0  0  0  0  0  0  0
   10.9516   -6.9658   -0.1706 H   0  0  0  0  0  0  0  0  0  0  0  0
   11.5347   -9.0431    0.1260 C   0  0  0  0  0  0  0  0  0  0  0  0
   12.6876   -9.0103   -0.7983 C   0  0  0  0  0  0  0  0  0  0  0  0
   13.5857   -9.8408   -0.7129 O   0  0  0  0  0  0  0  0  0  0  0  0
   12.7481   -8.0638   -1.8071 N   0  0  0  0  0  0  0  0  0  0  0  0
   12.0283   -7.3487   -1.7899 H   0  0  0  0  0  0  0  0  0  0  0  0
   13.9429   -7.8367   -2.6181 C   0  0  0  0  0  0  0  0  0  0  0  0
   14.4424   -8.7907   -2.8333 H   0  0  0  0  0  0  0  0  0  0  0  0
   13.6768   -7.3788   -3.5755 H   0  0  0  0  0  0  0  0  0  0  0  0
   14.8704   -6.9046   -1.8899 C   0  0  0  0  0  0  0  0  0  0  0  0
   16.0920   -7.3746   -1.3924 C   0  0  0  0  0  0  0  0  0  0  0  0
   16.3678   -8.4145   -1.5365 H   0  0  0  0  0  0  0  0  0  0  0  0
   16.9467   -6.5139   -0.7043 C   0  0  0  0  0  0  0  0  0  0  0  0
   17.8952   -6.8728   -0.3216 H   0  0  0  0  0  0  0  0  0  0  0  0
   16.5761   -5.1861   -0.4958 C   0  0  0  0  0  0  0  0  0  0  0  0
   17.2381   -4.5248    0.0511 H   0  0  0  0  0  0  0  0  0  0  0  0
   15.3535   -4.6921   -0.9701 C   0  0  0  0  0  0  0  0  0  0  0  0
   14.9382   -3.2539   -0.6836 C   0  0  0  0  0  0  0  0  0  0  0  0
   15.4220   -2.2636   -1.7409 C   0  0  0  0  0  0  0  0  0  0  0  0
   15.9440   -2.6749   -2.9856 C   0  0  0  0  0  0  0  0  0  0  0  0
   15.9942   -3.7303   -3.2390 H   0  0  0  0  0  0  0  0  0  0  0  0
   16.4106   -1.7318   -3.9123 C   0  0  0  0  0  0  0  0  0  0  0  0
   16.8269   -2.0465   -4.8630 H   0  0  0  0  0  0  0  0  0  0  0  0
   16.3498   -0.3679   -3.6167 C   0  0  0  0  0  0  0  0  0  0  0  0
   16.7278    0.3632   -4.3248 H   0  0  0  0  0  0  0  0  0  0  0  0
   15.7963    0.0553   -2.4067 C   0  0  0  0  0  0  0  0  0  0  0  0
   15.7340    1.1133   -2.1734 H   0  0  0  0  0  0  0  0  0  0  0  0
   15.3253   -0.8841   -1.4847 C   0  0  0  0  0  0  0  0  0  0  0  0
   14.8873   -0.5464   -0.5487 H   0  0  0  0  0  0  0  0  0  0  0  0
   13.4188   -3.1253   -0.4489 C   0  0  0  0  0  0  0  0  0  0  0  0
   12.5184   -3.3782   -1.2483 O   0  0  0  0  0  0  0  0  0  0  0  0
   13.1877   -2.6738    0.8359 N   0  0  0  0  0  0  0  0  0  0  0  0
   11.9126   -2.2691    1.4218 C   0  0  0  0  0  0  0  0  0  0  0  0
   11.8660   -2.6088    2.4629 H   0  0  0  0  0  0  0  0  0  0  0  0
   11.0635   -2.7098    0.8832 H   0  0  0  0  0  0  0  0  0  0  0  0
   11.8176   -1.1748    1.4030 H   0  0  0  0  0  0  0  0  0  0  0  0
   14.4095   -2.5195    1.4450 C   0  0  0  0  0  0  0  0  0  0  0  0
   14.5386   -2.0678    2.7223 N   0  0  0  0  0  0  0  0  0  0  0  0
   15.4506   -2.1752    3.1604 H   0  0  0  0  0  0  0  0  0  0  0  0
   13.7054   -2.0850    3.3125 H   0  0  0  0  0  0  0  0  0  0  0  0
   15.3945   -2.8375    0.6641 N   0  0  0  0  0  4  0  0  0  0  0  0
   16.3812   -2.7369    0.9147 H   0  0  0  0  0  0  0  0  0  0  0  0
   14.5134   -5.5595   -1.6908 C   0  0  0  0  0  0  0  0  0  0  0  0
   13.5669   -5.1918   -2.0813 H   0  0  0  0  0  0  0  0  0  0  0  0
   11.2238  -10.2168    0.8446 C   0  0  0  0  0  0  0  0  0  0  0  0
   11.8387  -11.1081    0.7399 H   0  0  0  0  0  0  0  0  0  0  0  0
   10.1171  -10.2641    1.6957 C   0  0  0  0  0  0  0  0  0  0  0  0
    9.9027  -11.1727    2.2503 H   0  0  0  0  0  0  0  0  0  0  0  0
  1  2  1  0
  2  3  2  0
  3  4  1  0
  3  5  1  0
  5  6  1  0
  5  7  2  0
  7  8  1  0
  8  9  2  0
  8 10  1  0
 10 11  1  0
 10 12  1  0
 12 13  1  0
 12 14  1  0
 12 15  1  0
 15 16  2  0
 16 17  1  0
 16 18  1  0
 18 19  1  0
 18 20  2  0
 20 21  1  0
 20 22  1  0
 22 23  1  0
 23 24  1  0
 24 25  2  0
 25 26  1  0
 25 27  1  0
 27 28  1  0
 27 29  2  0
 29 30  1  0
 29 31  1  0
 31 32  1  0
 31 33  2  0
 33 34  1  0
 23 35  1  0
 35 36  2  0
 35 37  1  0
 37 38  1  0
 38 39  1  0
 38 40  1  0
 38 41  1  0
 37 42  1  0
 42 43  1  0
 43 44  1  0
 43 45  1  0
 42 46  2  0
 46 47  1  0
 22 48  2  0
 48 49  1  0
  7 50  1  0
 50 51  1  0
 50 52  2  0
 52 53  1  0
 52  2  1  0
 48 15  1  0
 46 23  1  0
 33 24  1  0
M  CHG  1  46   1
M  END
>  <score>  (371) 
5.20306

$$$$

     RDKit          3D

 49 52  0  0  0  0  0  0  0  0999 V2000
   13.5855  -10.3839   -4.1352 H   0  0  0  0  0  0  0  0  0  0  0  0
   13.1709   -9.6589   -3.4332 C   0  0  0  0  0  0  0  0  0  0  0  0
   11.8962   -9.7618   -3.0340 N   0  0  0  0  0  0  0  0  0  0  0  0
   11.4019   -8.8406   -2.2001 C   0  0  0  0  0  0  0  0  0  0  0  0
   10.0873   -8.9899   -1.8497 O   0  0  0  0  0  0  0  0  0  0  0  0
    9.3429   -7.7813   -1.6410 C   0  0  0  0  0  0  0  0  0  0  0  0
    8.2973   -7.9550   -1.9039 H   0  0  0  0  0  0  0  0  0  0  0  0
    9.7180   -6.9713   -2.2686 H   0  0  0  0  0  0  0  0  0  0  0  0
    9.3741   -7.4467   -0.6011 H   0  0  0  0  0  0  0  0  0  0  0  0
   12.1889   -7.7973   -1.7006 C   0  0  0  0  0  0  0  0  0  0  0  0
   11.7512   -7.1233   -0.9822 H   0  0  0  0  0  0  0  0  0  0  0  0
   13.5335   -7.7158   -2.0459 C   0  0  0  0  0  0  0  0  0  0  0  0
   14.4996   -6.7628   -1.4883 C   0  0  0  0  0  0  0  0  0  0  0  0
   15.7853   -7.2290   -1.1610 C   0  0  0  0  0  0  0  0  0  0  0  0
   16.0091   -8.2868   -1.2644 H   0  0  0  0  0  0  0  0  0  0  0  0
   16.7621   -6.3563   -0.6829 C   0  0  0  0  0  0  0  0  0  0  0  0
   17.7423   -6.7346   -0.4015 H   0  0  0  0  0  0  0  0  0  0  0  0
   16.4628   -5.0005   -0.5532 C   0  0  0  0  0  0  0  0  0  0  0  0
   17.2349   -4.3229   -0.2039 H   0  0  0  0  0  0  0  0  0  0  0  0
   15.1809   -4.5050   -0.8365 C   0  0  0  0  0  0  0  0  0  0  0  0
   14.8786   -3.0262   -0.5964 C   0  0  0  0  0  0  0  0  0  0  0  0
   15.4448   -2.0901   -1.6634 C   0  0  0  0  0  0  0  0  0  0  0  0
   15.9521   -2.5696   -2.8855 C   0  0  0  0  0  0  0  0  0  0  0  0
   15.9762   -3.6386   -3.0755 H   0  0  0  0  0  0  0  0  0  0  0  0
   16.4180   -1.6823   -3.8678 C   0  0  0  0  0  0  0  0  0  0  0  0
   16.8102   -2.0588   -4.8072 H   0  0  0  0  0  0  0  0  0  0  0  0
   16.3761   -0.3028   -3.6477 C   0  0  0  0  0  0  0  0  0  0  0  0
   16.7396    0.3830   -4.4086 H   0  0  0  0  0  0  0  0  0  0  0  0
   15.8554    0.1912   -2.4490 C   0  0  0  0  0  0  0  0  0  0  0  0
   15.8076    1.2638   -2.2809 H   0  0  0  0  0  0  0  0  0  0  0  0
   15.3906   -0.6962   -1.4694 C   0  0  0  0  0  0  0  0  0  0  0  0
   14.9777   -0.2926   -0.5488 H   0  0  0  0  0  0  0  0  0  0  0  0
   13.3704   -2.7866   -0.4429 C   0  0  0  0  0  0  0  0  0  0  0  0
   12.5072   -2.9479   -1.3046 O   0  0  0  0  0  0  0  0  0  0  0  0
   13.0857   -2.4246    0.8547 N   0  0  0  0  0  0  0  0  0  0  0  0
   11.7430   -2.2270    1.3997 C   0  0  0  0  0  0  0  0  0  0  0  0
   11.5696   -2.8775    2.2627 H   0  0  0  0  0  0  0  0  0  0  0  0
   11.5967   -1.1863    1.7052 H   0  0  0  0  0  0  0  0  0  0  0  0
   10.9861   -2.4650    0.6422 H   0  0  0  0  0  0  0  0  0  0  0  0
   14.2803   -2.4282    1.5470 C   0  0  0  0  0  0  0  0  0  0  0  0
   14.4381   -2.3070    2.8966 N   0  0  0  0  0  0  0  0  0  0  0  0
   13.6365   -2.0334    3.4651 H   0  0  0  0  0  0  0  0  0  0  0  0
   15.3766   -2.1477    3.2581 H   0  0  0  0  0  0  0  0  0  0  0  0
   15.2977   -2.6409    0.7723 N   0  0  0  0  0  4  0  0  0  0  0  0
   16.2386   -2.7978    1.1407 H   0  0  0  0  0  0  0  0  0  0  0  0
   14.1971   -5.4054   -1.3087 C   0  0  0  0  0  0  0  0  0  0  0  0
   13.1950   -5.0559   -1.5455 H   0  0  0  0  0  0  0  0  0  0  0  0
   13.9966   -8.6506   -2.9442 C   0  0  0  0  0  0  0  0  0  0  0  0
   15.0353   -8.5367   -3.2053 H   0  0  0  0  0  0  0  0  0  0  0  0
  1  2  1  0
  2  3  2  0
  3  4  1  0
  4  5  1  0
  5  6  1  0
  6  7  1  0
  6  8  1  0
  6  9  1  0
  4 10  2  0
 10 11  1  0
 10 12  1  0
 12 13  1  0
 13 14  2  0
 14 15  1  0
 14 16  1  0
 16 17  1  0
 16 18  2  0
 18 19  1  0
 18 20  1  0
 20 21  1  0
 21 22  1  0
 22 23  2  0
 23 24  1  0
 23 25  1  0
 25 26  1  0
 25 27  2  0
 27 28  1  0
 27 29  1  0
 29 30  1  0
 29 31  2  0
 31 32  1  0
 21 33  1  0
 33 34  2  0
 33 35  1  0
 35 36  1  0
 36 37  1  0
 36 38  1  0
 36 39  1  0
 35 40  1  0
 40 41  1  0
 41 42  1  0
 41 43  1  0
 40 44  2  0
 44 45  1  0
 20 46  2  0
 46 47  1  0
 12 48  2  0
 48 49  1  0
 48  2  1  0
 46 13  1  0
 44 21  1  0
 31 22  1  0
M  CHG  1  44   1
M  END
>  <score>  (372) 
5.19502

$$$$

     RDKit          3D

 43 45  0  0  0  0  0  0  0  0999 V2000
   16.0940   -8.3942   -1.6919 H   0  0  0  0  0  0  0  0  0  0  0  0
   15.8724   -7.3464   -1.5151 C   0  0  0  0  0  0  0  0  0  0  0  0
   16.7783   -6.5408   -0.8162 C   0  0  0  0  0  0  0  0  0  0  0  0
   17.7178   -6.9545   -0.4623 H   0  0  0  0  0  0  0  0  0  0  0  0
   16.4711   -5.1998   -0.5635 C   0  0  0  0  0  0  0  0  0  0  0  0
   17.1742   -4.5746   -0.0199 H   0  0  0  0  0  0  0  0  0  0  0  0
   15.2534   -4.6504   -0.9921 C   0  0  0  0  0  0  0  0  0  0  0  0
   14.9015   -3.2036   -0.6751 C   0  0  0  0  0  0  0  0  0  0  0  0
   15.4815   -2.2162   -1.6824 C   0  0  0  0  0  0  0  0  0  0  0  0
   15.9675   -2.6416   -2.9292 C   0  0  0  0  0  0  0  0  0  0  0  0
   15.9356   -3.7010   -3.1713 H   0  0  0  0  0  0  0  0  0  0  0  0
   16.4742   -1.7205   -3.8554 C   0  0  0  0  0  0  0  0  0  0  0  0
   16.8408   -2.0659   -4.8188 H   0  0  0  0  0  0  0  0  0  0  0  0
   16.4677   -0.3495   -3.5564 C   0  0  0  0  0  0  0  0  0  0  0  0
   16.8287    0.3629   -4.2942 H   0  0  0  0  0  0  0  0  0  0  0  0
   15.9335    0.1056   -2.3417 C   0  0  0  0  0  0  0  0  0  0  0  0
   15.6944    1.5838   -2.1110 C   0  0  0  0  0  0  0  0  0  0  0  0
   15.6065    2.0610   -3.0861 H   0  0  0  0  0  0  0  0  0  0  0  0
   14.7365    1.7136   -1.6021 H   0  0  0  0  0  0  0  0  0  0  0  0
   16.7375    2.3437   -1.3060 C   0  0  0  0  0  0  0  0  0  0  0  0
   16.5127    2.8037   -0.2034 O   0  0  0  0  0  0  0  0  0  0  0  0
   17.8673    2.8514   -1.8687 N   0  0  0  0  0  0  0  0  0  0  0  0
   18.2109    2.4510   -2.7304 H   0  0  0  0  0  0  0  0  0  0  0  0
   18.4876    3.3573   -1.2442 H   0  0  0  0  0  0  0  0  0  0  0  0
   15.4648   -0.8334   -1.4127 C   0  0  0  0  0  0  0  0  0  0  0  0
   15.0391   -0.4783   -0.4812 H   0  0  0  0  0  0  0  0  0  0  0  0
   13.3811   -3.0011   -0.5092 C   0  0  0  0  0  0  0  0  0  0  0  0
   12.5055   -3.2111   -1.3468 O   0  0  0  0  0  0  0  0  0  0  0  0
   13.1043   -2.6000    0.7826 N   0  0  0  0  0  0  0  0  0  0  0  0
   11.7869   -2.2800    1.3345 C   0  0  0  0  0  0  0  0  0  0  0  0
   10.9989   -2.4760    0.5976 H   0  0  0  0  0  0  0  0  0  0  0  0
   11.5784   -2.8879    2.2226 H   0  0  0  0  0  0  0  0  0  0  0  0
   11.7344   -1.2221    1.6166 H   0  0  0  0  0  0  0  0  0  0  0  0
   14.3078   -2.5424    1.4479 C   0  0  0  0  0  0  0  0  0  0  0  0
   14.4840   -2.2022    2.7567 N   0  0  0  0  0  0  0  0  0  0  0  0
   15.4201   -2.2249    3.1522 H   0  0  0  0  0  0  0  0  0  0  0  0
   13.6740   -2.0573    3.3552 H   0  0  0  0  0  0  0  0  0  0  0  0
   15.3120   -2.8617    0.7027 N   0  0  0  0  0  4  0  0  0  0  0  0
   16.2717   -2.9392    1.0445 H   0  0  0  0  0  0  0  0  0  0  0  0
   14.3635   -5.4623   -1.7166 C   0  0  0  0  0  0  0  0  0  0  0  0
   13.4244   -5.0495   -2.0727 H   0  0  0  0  0  0  0  0  0  0  0  0
   14.6682   -6.8027   -1.9734 C   0  0  0  0  0  0  0  0  0  0  0  0
   13.9603   -7.4200   -2.5182 H   0  0  0  0  0  0  0  0  0  0  0  0
  1  2  1  0
  2  3  2  0
  3  4  1  0
  3  5  1  0
  5  6  1  0
  5  7  2  0
  7  8  1  0
  8  9  1  0
  9 10  2  0
 10 11  1  0
 10 12  1  0
 12 13  1  0
 12 14  2  0
 14 15  1  0
 14 16  1  0
 16 17  1  0
 17 18  1  0
 17 19  1  0
 17 20  1  0
 20 21  2  0
 20 22  1  0
 22 23  1  0
 22 24  1  0
 16 25  2  0
 25 26  1  0
  8 27  1  0
 27 28  2  0
 27 29  1  0
 29 30  1  0
 30 31  1  0
 30 32  1  0
 30 33  1  0
 29 34  1  0
 34 35  1  0
 35 36  1  0
 35 37  1  0
 34 38  2  0
 38 39  1  0
  7 40  1  0
 40 41  1  0
 40 42  2  0
 42 43  1  0
 42  2  1  0
 38  8  1  0
 25  9  1  0
M  CHG  1  38   1
M  END
>  <score>  (373) 
5.19446

$$$$

     RDKit          3D

 48 51  0  0  0  0  0  0  0  0999 V2000
    8.5418  -12.3208   -2.9553 H   0  0  0  0  0  0  0  0  0  0  0  0
    9.3131  -11.5884   -2.7421 C   0  0  0  0  0  0  0  0  0  0  0  0
   10.5753  -11.7292   -3.3094 C   0  0  0  0  0  0  0  0  0  0  0  0
   10.7876  -12.5536   -3.9797 H   0  0  0  0  0  0  0  0  0  0  0  0
   11.5727  -10.7964   -3.0167 C   0  0  0  0  0  0  0  0  0  0  0  0
   12.5624  -10.8678   -3.4545 H   0  0  0  0  0  0  0  0  0  0  0  0
   11.3208   -9.7342   -2.1589 C   0  0  0  0  0  0  0  0  0  0  0  0
   12.3957   -8.8382   -1.8669 C   0  0  0  0  0  0  0  0  0  0  0  0
   13.3566   -8.1372   -1.6504 C   0  0  0  0  0  0  0  0  0  0  0  0
   14.4479   -7.2552   -1.3936 C   0  0  0  0  0  0  0  0  0  0  0  0
   15.7584   -7.7179   -1.2446 C   0  0  0  0  0  0  0  0  0  0  0  0
   15.9635   -8.7787   -1.3396 H   0  0  0  0  0  0  0  0  0  0  0  0
   16.7910   -6.8185   -0.9472 C   0  0  0  0  0  0  0  0  0  0  0  0
   17.8039   -7.1769   -0.7873 H   0  0  0  0  0  0  0  0  0  0  0  0
   16.5092   -5.4524   -0.8143 C   0  0  0  0  0  0  0  0  0  0  0  0
   17.3065   -4.7538   -0.5695 H   0  0  0  0  0  0  0  0  0  0  0  0
   15.1907   -4.9855   -0.9520 C   0  0  0  0  0  0  0  0  0  0  0  0
   14.8186   -3.5402   -0.6842 C   0  0  0  0  0  0  0  0  0  0  0  0
   15.3362   -2.5455   -1.7062 C   0  0  0  0  0  0  0  0  0  0  0  0
   15.8737   -2.9194   -2.9503 C   0  0  0  0  0  0  0  0  0  0  0  0
   15.9250   -3.9650   -3.2399 H   0  0  0  0  0  0  0  0  0  0  0  0
   16.3627   -1.9401   -3.8251 C   0  0  0  0  0  0  0  0  0  0  0  0
   16.7902   -2.2171   -4.7803 H   0  0  0  0  0  0  0  0  0  0  0  0
   16.3112   -0.5875   -3.4760 C   0  0  0  0  0  0  0  0  0  0  0  0
   16.7019    0.1726   -4.1461 H   0  0  0  0  0  0  0  0  0  0  0  0
   15.7406   -0.2093   -2.2598 C   0  0  0  0  0  0  0  0  0  0  0  0
   15.6769    0.8346   -1.9722 H   0  0  0  0  0  0  0  0  0  0  0  0
   15.2511   -1.1816   -1.3904 C   0  0  0  0  0  0  0  0  0  0  0  0
   14.8115   -0.8885   -0.4403 H   0  0  0  0  0  0  0  0  0  0  0  0
   13.3030   -3.3322   -0.4565 C   0  0  0  0  0  0  0  0  0  0  0  0
   12.3857   -3.6293   -1.2209 O   0  0  0  0  0  0  0  0  0  0  0  0
   13.0980   -2.7893    0.7971 N   0  0  0  0  0  0  0  0  0  0  0  0
   11.8321   -2.3091    1.3602 C   0  0  0  0  0  0  0  0  0  0  0  0
   11.0008   -2.4658    0.6596 H   0  0  0  0  0  0  0  0  0  0  0  0
   11.8879   -1.2344    1.5818 H   0  0  0  0  0  0  0  0  0  0  0  0
   11.6032   -2.8476    2.2888 H   0  0  0  0  0  0  0  0  0  0  0  0
   14.3343   -2.6902    1.3939 C   0  0  0  0  0  0  0  0  0  0  0  0
   14.5873   -2.1333    2.6087 N   0  0  0  0  0  0  0  0  0  0  0  0
   15.5191   -2.2732    2.9946 H   0  0  0  0  0  0  0  0  0  0  0  0
   13.8018   -1.9842    3.2399 H   0  0  0  0  0  0  0  0  0  0  0  0
   15.2889   -3.1537    0.6592 N   0  0  0  0  0  4  0  0  0  0  0  0
   16.2756   -3.0595    0.9053 H   0  0  0  0  0  0  0  0  0  0  0  0
   14.1775   -5.8984   -1.2637 C   0  0  0  0  0  0  0  0  0  0  0  0
   13.1535   -5.5574   -1.3822 H   0  0  0  0  0  0  0  0  0  0  0  0
   10.0484   -9.5745   -1.6077 C   0  0  0  0  0  0  0  0  0  0  0  0
    9.8223   -8.7471   -0.9409 H   0  0  0  0  0  0  0  0  0  0  0  0
    9.0450  -10.4991   -1.9127 C   0  0  0  0  0  0  0  0  0  0  0  0
    8.0531  -10.3864   -1.4979 H   0  0  0  0  0  0  0  0  0  0  0  0
  1  2  1  0
  2  3  2  0
  3  4  1  0
  3  5  1  0
  5  6  1  0
  5  7  2  0
  7  8  1  0
  8  9  3  0
  9 10  1  0
 10 11  2  0
 11 12  1  0
 11 13  1  0
 13 14  1  0
 13 15  2  0
 15 16  1  0
 15 17  1  0
 17 18  1  0
 18 19  1  0
 19 20  2  0
 20 21  1  0
 20 22  1  0
 22 23  1  0
 22 24  2  0
 24 25  1  0
 24 26  1  0
 26 27  1  0
 26 28  2  0
 28 29  1  0
 18 30  1  0
 30 31  2  0
 30 32  1  0
 32 33  1  0
 33 34  1  0
 33 35  1  0
 33 36  1  0
 32 37  1  0
 37 38  1  0
 38 39  1  0
 38 40  1  0
 37 41  2  0
 41 42  1  0
 17 43  2  0
 43 44  1  0
  7 45  1  0
 45 46  1  0
 45 47  2  0
 47 48  1  0
 47  2  1  0
 43 10  1  0
 41 18  1  0
 28 19  1  0
M  CHG  1  41   1
M  END
>  <score>  (374) 
5.19306

$$$$

     RDKit          3D

 46 49  0  0  0  0  0  0  0  0999 V2000
   16.1074   -8.4589   -1.6250 H   0  0  0  0  0  0  0  0  0  0  0  0
   15.8568   -7.4116   -1.4820 C   0  0  0  0  0  0  0  0  0  0  0  0
   16.7410   -6.5693   -0.8021 C   0  0  0  0  0  0  0  0  0  0  0  0
   17.6806   -6.9540   -0.4164 H   0  0  0  0  0  0  0  0  0  0  0  0
   16.4091   -5.2264   -0.5997 C   0  0  0  0  0  0  0  0  0  0  0  0
   17.0945   -4.5794   -0.0594 H   0  0  0  0  0  0  0  0  0  0  0  0
   15.1897   -4.7030   -1.0586 C   0  0  0  0  0  0  0  0  0  0  0  0
   14.8248   -3.2516   -0.7615 C   0  0  0  0  0  0  0  0  0  0  0  0
   15.4089   -2.2474   -1.7491 C   0  0  0  0  0  0  0  0  0  0  0  0
   15.9425   -2.6389   -2.9889 C   0  0  0  0  0  0  0  0  0  0  0  0
   15.9714   -3.6908   -3.2571 H   0  0  0  0  0  0  0  0  0  0  0  0
   16.4271   -1.6811   -3.8876 C   0  0  0  0  0  0  0  0  0  0  0  0
   16.8201   -1.9886   -4.8514 H   0  0  0  0  0  0  0  0  0  0  0  0
   16.3976   -0.3216   -3.5540 C   0  0  0  0  0  0  0  0  0  0  0  0
   16.7578    0.4171   -4.2634 H   0  0  0  0  0  0  0  0  0  0  0  0
   15.8779    0.0973   -2.3189 C   0  0  0  0  0  0  0  0  0  0  0  0
   15.7538    1.5755   -1.9886 C   0  0  0  0  0  0  0  0  0  0  0  0
   15.7393    2.1446   -2.9197 H   0  0  0  0  0  0  0  0  0  0  0  0
   14.7982    1.7368   -1.4830 H   0  0  0  0  0  0  0  0  0  0  0  0
   16.8713    2.1628   -1.1225 C   0  0  0  0  0  0  0  0  0  0  0  0
   17.8753    1.9770   -1.4870 H   0  0  0  0  0  0  0  0  0  0  0  0
   16.6771    2.2842    0.3823 C   0  0  0  0  0  0  0  0  0  0  0  0
   15.7327    1.9273    0.7825 H   0  0  0  0  0  0  0  0  0  0  0  0
   17.5217    2.1441    1.0611 H   0  0  0  0  0  0  0  0  0  0  0  0
   16.6611    3.5322   -0.5026 C   0  0  0  0  0  0  0  0  0  0  0  0
   15.6989    4.0153   -0.7038 H   0  0  0  0  0  0  0  0  0  0  0  0
   17.5346    4.1942   -0.4915 H   0  0  0  0  0  0  0  0  0  0  0  0
   15.3722   -0.8731   -1.4418 C   0  0  0  0  0  0  0  0  0  0  0  0
   14.9263   -0.5497   -0.5049 H   0  0  0  0  0  0  0  0  0  0  0  0
   13.3069   -3.0384   -0.5911 C   0  0  0  0  0  0  0  0  0  0  0  0
   12.4387   -3.1440   -1.4578 O   0  0  0  0  0  0  0  0  0  0  0  0
   13.0327   -2.6786    0.7152 N   0  0  0  0  0  0  0  0  0  0  0  0
   11.7305   -2.3136    1.2756 C   0  0  0  0  0  0  0  0  0  0  0  0
   11.5083   -2.9154    2.1649 H   0  0  0  0  0  0  0  0  0  0  0  0
   11.7176   -1.2554    1.5617 H   0  0  0  0  0  0  0  0  0  0  0  0
   10.9275   -2.4790    0.5476 H   0  0  0  0  0  0  0  0  0  0  0  0
   14.2403   -2.6208    1.3762 C   0  0  0  0  0  0  0  0  0  0  0  0
   14.4158   -2.2860    2.6872 N   0  0  0  0  0  0  0  0  0  0  0  0
   13.6028   -2.1219    3.2773 H   0  0  0  0  0  0  0  0  0  0  0  0
   15.3516   -2.3281    3.0886 H   0  0  0  0  0  0  0  0  0  0  0  0
   15.2392   -2.9208    0.6180 N   0  0  0  0  0  4  0  0  0  0  0  0
   16.2089   -2.9559    0.9390 H   0  0  0  0  0  0  0  0  0  0  0  0
   14.3150   -5.5566   -1.7582 C   0  0  0  0  0  0  0  0  0  0  0  0
   13.3660   -5.1803   -2.1290 H   0  0  0  0  0  0  0  0  0  0  0  0
   14.6466   -6.9035   -1.9663 C   0  0  0  0  0  0  0  0  0  0  0  0
   13.9596   -7.5601   -2.4926 H   0  0  0  0  0  0  0  0  0  0  0  0
  1  2  1  0
  2  3  2  0
  3  4  1  0
  3  5  1  0
  5  6  1  0
  5  7  2  0
  7  8  1  0
  8  9  1  0
  9 10  2  0
 10 11  1  0
 10 12  1  0
 12 13  1  0
 12 14  2  0
 14 15  1  0
 14 16  1  0
 16 17  1  0
 17 18  1  0
 17 19  1  0
 17 20  1  0
 20 21  1  0
 20 22  1  0
 22 23  1  0
 22 24  1  0
 22 25  1  0
 25 26  1  0
 25 27  1  0
 16 28  2  0
 28 29  1  0
  8 30  1  0
 30 31  2  0
 30 32  1  0
 32 33  1  0
 33 34  1  0
 33 35  1  0
 33 36  1  0
 32 37  1  0
 37 38  1  0
 38 39  1  0
 38 40  1  0
 37 41  2  0
 41 42  1  0
  7 43  1  0
 43 44  1  0
 43 45  2  0
 45 46  1  0
 45  2  1  0
 41  8  1  0
 28  9  1  0
 25 20  1  0
M  CHG  1  41   1
M  END
>  <score>  (375) 
5.19238

$$$$

     RDKit          3D

 56 59  0  0  0  0  0  0  0  0999 V2000
   16.0921   -8.3127   -1.6689 H   0  0  0  0  0  0  0  0  0  0  0  0
   15.8732   -7.2609   -1.5042 C   0  0  0  0  0  0  0  0  0  0  0  0
   16.7801   -6.4480   -0.8168 C   0  0  0  0  0  0  0  0  0  0  0  0
   17.7127   -6.8696   -0.4525 H   0  0  0  0  0  0  0  0  0  0  0  0
   16.4795   -5.0977   -0.5818 C   0  0  0  0  0  0  0  0  0  0  0  0
   17.1866   -4.4844   -0.0309 H   0  0  0  0  0  0  0  0  0  0  0  0
   15.2666   -4.5373   -1.0265 C   0  0  0  0  0  0  0  0  0  0  0  0
   14.8791   -3.0853   -0.7142 C   0  0  0  0  0  0  0  0  0  0  0  0
   15.3225   -2.0638   -1.7683 C   0  0  0  0  0  0  0  0  0  0  0  0
   16.0303   -2.4736   -2.9086 C   0  0  0  0  0  0  0  0  0  0  0  0
   16.3027   -3.5196   -3.0160 H   0  0  0  0  0  0  0  0  0  0  0  0
   16.3776   -1.5583   -3.9084 C   0  0  0  0  0  0  0  0  0  0  0  0
   16.9121   -1.8870   -4.7947 H   0  0  0  0  0  0  0  0  0  0  0  0
   16.0421   -0.2082   -3.7741 C   0  0  0  0  0  0  0  0  0  0  0  0
   16.3154    0.4945   -4.5567 H   0  0  0  0  0  0  0  0  0  0  0  0
   15.3594    0.2525   -2.6404 C   0  0  0  0  0  0  0  0  0  0  0  0
   15.0498    1.7442   -2.5284 C   0  0  0  0  0  0  0  0  0  0  0  0
   14.2835    1.9185   -1.7650 H   0  0  0  0  0  0  0  0  0  0  0  0
   14.6457    2.0813   -3.4879 H   0  0  0  0  0  0  0  0  0  0  0  0
   16.2543    2.5551   -2.2257 N   0  0  0  0  0  0  0  0  0  0  0  0
   17.0378    2.0993   -1.0575 C   0  0  0  0  0  0  0  0  0  0  0  0
   18.0465    2.5147   -1.1042 H   0  0  0  0  0  0  0  0  0  0  0  0
   17.1252    1.0117   -1.0969 H   0  0  0  0  0  0  0  0  0  0  0  0
   16.4096    2.5339    0.2789 C   0  0  0  0  0  0  0  0  0  0  0  0
   17.0357    2.1790    1.1055 H   0  0  0  0  0  0  0  0  0  0  0  0
   15.4253    2.0676    0.3798 H   0  0  0  0  0  0  0  0  0  0  0  0
   16.2815    4.0105    0.3260 N   0  0  0  0  0  0  0  0  0  0  0  0
   15.9218    4.5798    1.6369 C   0  0  0  0  0  0  0  0  0  0  0  0
   15.0125    4.1193    2.0436 H   0  0  0  0  0  0  0  0  0  0  0  0
   16.7338    4.4181    2.3481 H   0  0  0  0  0  0  0  0  0  0  0  0
   15.7741    5.6597    1.5408 H   0  0  0  0  0  0  0  0  0  0  0  0
   15.5796    4.5789   -0.8550 C   0  0  0  0  0  0  0  0  0  0  0  0
   15.7041    5.6675   -0.8449 H   0  0  0  0  0  0  0  0  0  0  0  0
   14.5081    4.3586   -0.7856 H   0  0  0  0  0  0  0  0  0  0  0  0
   16.1083    4.0334   -2.2092 C   0  0  0  0  0  0  0  0  0  0  0  0
   17.0875    4.4769   -2.4132 H   0  0  0  0  0  0  0  0  0  0  0  0
   15.4350    4.3532   -3.0102 H   0  0  0  0  0  0  0  0  0  0  0  0
   14.9780   -0.6922   -1.6573 C   0  0  0  0  0  0  0  0  0  0  0  0
   14.4005   -0.3635   -0.7972 H   0  0  0  0  0  0  0  0  0  0  0  0
   13.3598   -2.9543   -0.4935 C   0  0  0  0  0  0  0  0  0  0  0  0
   12.4662   -3.1892   -1.3033 O   0  0  0  0  0  0  0  0  0  0  0  0
   13.1087   -2.5481    0.7997 N   0  0  0  0  0  0  0  0  0  0  0  0
   11.7914   -2.2649    1.3699 C   0  0  0  0  0  0  0  0  0  0  0  0
   11.0024   -2.4725    0.6374 H   0  0  0  0  0  0  0  0  0  0  0  0
   11.6032   -2.8854    2.2533 H   0  0  0  0  0  0  0  0  0  0  0  0
   11.7149   -1.2105    1.6580 H   0  0  0  0  0  0  0  0  0  0  0  0
   14.3263   -2.4651    1.4357 C   0  0  0  0  0  0  0  0  0  0  0  0
   14.4988   -2.1822    2.7591 N   0  0  0  0  0  0  0  0  0  0  0  0
   15.4339   -2.2356    3.1578 H   0  0  0  0  0  0  0  0  0  0  0  0
   13.6840   -2.1023    3.3639 H   0  0  0  0  0  0  0  0  0  0  0  0
   15.3225   -2.7124    0.6479 N   0  0  0  0  0  4  0  0  0  0  0  0
   16.2837   -2.8224    0.9761 H   0  0  0  0  0  0  0  0  0  0  0  0
   14.3806   -5.3660   -1.7410 C   0  0  0  0  0  0  0  0  0  0  0  0
   13.4403   -4.9634   -2.1040 H   0  0  0  0  0  0  0  0  0  0  0  0
   14.6751   -6.7154   -1.9712 C   0  0  0  0  0  0  0  0  0  0  0  0
   13.9673   -7.3415   -2.5063 H   0  0  0  0  0  0  0  0  0  0  0  0
  1  2  1  0
  2  3  2  0
  3  4  1  0
  3  5  1  0
  5  6  1  0
  5  7  2  0
  7  8  1  0
  8  9  1  0
  9 10  2  0
 10 11  1  0
 10 12  1  0
 12 13  1  0
 12 14  2  0
 14 15  1  0
 14 16  1  0
 16 17  1  0
 17 18  1  0
 17 19  1  0
 17 20  1  0
 20 21  1  0
 21 22  1  0
 21 23  1  0
 21 24  1  0
 24 25  1  0
 24 26  1  0
 24 27  1  0
 27 28  1  0
 28 29  1  0
 28 30  1  0
 28 31  1  0
 27 32  1  0
 32 33  1  0
 32 34  1  0
 32 35  1  0
 35 36  1  0
 35 37  1  0
 16 38  2  0
 38 39  1  0
  8 40  1  0
 40 41  2  0
 40 42  1  0
 42 43  1  0
 43 44  1  0
 43 45  1  0
 43 46  1  0
 42 47  1  0
 47 48  1  0
 48 49  1  0
 48 50  1  0
 47 51  2  0
 51 52  1  0
  7 53  1  0
 53 54  1  0
 53 55  2  0
 55 56  1  0
 55  2  1  0
 51  8  1  0
 38  9  1  0
 35 20  1  0
M  CHG  1  51   1
M  END
>  <score>  (376) 
5.19034

$$$$

     RDKit          3D

 41 43  0  0  0  0  0  0  0  0999 V2000
   16.1217   -8.4866   -1.6115 H   0  0  0  0  0  0  0  0  0  0  0  0
   15.8538   -7.4414   -1.4722 C   0  0  0  0  0  0  0  0  0  0  0  0
   16.7291   -6.5836   -0.8021 C   0  0  0  0  0  0  0  0  0  0  0  0
   17.6731   -6.9562   -0.4172 H   0  0  0  0  0  0  0  0  0  0  0  0
   16.3912   -5.2392   -0.6099 C   0  0  0  0  0  0  0  0  0  0  0  0
   17.0677   -4.5880   -0.0648 H   0  0  0  0  0  0  0  0  0  0  0  0
   15.1734   -4.7146   -1.0743 C   0  0  0  0  0  0  0  0  0  0  0  0
   14.8182   -3.2471   -0.7848 C   0  0  0  0  0  0  0  0  0  0  0  0
   15.3833   -2.2354   -1.7814 C   0  0  0  0  0  0  0  0  0  0  0  0
   15.9375   -2.6263   -3.0093 C   0  0  0  0  0  0  0  0  0  0  0  0
   16.0014   -3.6789   -3.2577 H   0  0  0  0  0  0  0  0  0  0  0  0
   16.4196   -1.6772   -3.9187 C   0  0  0  0  0  0  0  0  0  0  0  0
   16.8537   -1.9993   -4.8581 H   0  0  0  0  0  0  0  0  0  0  0  0
   16.3428   -0.3138   -3.6173 C   0  0  0  0  0  0  0  0  0  0  0  0
   16.6999    0.4330   -4.3184 H   0  0  0  0  0  0  0  0  0  0  0  0
   15.7893    0.0987   -2.4082 C   0  0  0  0  0  0  0  0  0  0  0  0
   15.7207    1.4608   -2.1370 N   0  0  0  0  0  0  0  0  0  0  0  0
   16.0914    2.0834   -2.8496 H   0  0  0  0  0  0  0  0  0  0  0  0
   15.1789    2.0466   -0.8928 C   0  0  0  0  0  0  0  0  0  0  0  0
   15.2369    3.1394   -0.9097 H   0  0  0  0  0  0  0  0  0  0  0  0
   15.7387    1.7009   -0.0210 H   0  0  0  0  0  0  0  0  0  0  0  0
   14.1291    1.7757   -0.7654 H   0  0  0  0  0  0  0  0  0  0  0  0
   15.3158   -0.8550   -1.5097 C   0  0  0  0  0  0  0  0  0  0  0  0
   14.9024   -0.4908   -0.5797 H   0  0  0  0  0  0  0  0  0  0  0  0
   13.3074   -3.0166   -0.6075 C   0  0  0  0  0  0  0  0  0  0  0  0
   12.4372   -3.0848   -1.4719 O   0  0  0  0  0  0  0  0  0  0  0  0
   13.0267   -2.6724    0.7003 N   0  0  0  0  0  0  0  0  0  0  0  0
   11.7203   -2.3134    1.2612 C   0  0  0  0  0  0  0  0  0  0  0  0
   11.6952   -1.2616    1.5585 H   0  0  0  0  0  0  0  0  0  0  0  0
   11.5044   -2.9176    2.1458 H   0  0  0  0  0  0  0  0  0  0  0  0
   10.9138   -2.4750    0.5403 H   0  0  0  0  0  0  0  0  0  0  0  0
   14.2256   -2.6317    1.3662 C   0  0  0  0  0  0  0  0  0  0  0  0
   14.3955   -2.3309    2.6856 N   0  0  0  0  0  0  0  0  0  0  0  0
   13.5814   -2.1271    3.2618 H   0  0  0  0  0  0  0  0  0  0  0  0
   15.3308   -2.3546    3.0908 H   0  0  0  0  0  0  0  0  0  0  0  0
   15.2218   -2.9111    0.5976 N   0  0  0  0  0  4  0  0  0  0  0  0
   16.1899   -2.9127    0.9132 H   0  0  0  0  0  0  0  0  0  0  0  0
   14.3034   -5.5885   -1.7667 C   0  0  0  0  0  0  0  0  0  0  0  0
   13.3538   -5.2335   -2.1578 H   0  0  0  0  0  0  0  0  0  0  0  0
   14.6430   -6.9402   -1.9612 C   0  0  0  0  0  0  0  0  0  0  0  0
   13.9724   -7.6132   -2.4884 H   0  0  0  0  0  0  0  0  0  0  0  0
  1  2  1  0
  2  3  2  0
  3  4  1  0
  3  5  1  0
  5  6  1  0
  5  7  2  0
  7  8  1  0
  8  9  1  0
  9 10  2  0
 10 11  1  0
 10 12  1  0
 12 13  1  0
 12 14  2  0
 14 15  1  0
 14 16  1  0
 16 17  1  0
 17 18  1  0
 17 19  1  0
 19 20  1  0
 19 21  1  0
 19 22  1  0
 16 23  2  0
 23 24  1  0
  8 25  1  0
 25 26  2  0
 25 27  1  0
 27 28  1  0
 28 29  1  0
 28 30  1  0
 28 31  1  0
 27 32  1  0
 32 33  1  0
 33 34  1  0
 33 35  1  0
 32 36  2  0
 36 37  1  0
  7 38  1  0
 38 39  1  0
 38 40  2  0
 40 41  1  0
 40  2  1  0
 36  8  1  0
 23  9  1  0
M  CHG  1  36   1
M  END
>  <score>  (377) 
5.18706

$$$$

     RDKit          3D

 59 62  0  0  0  0  0  0  0  0999 V2000
   16.1485   -8.1873   -1.6949 H   0  0  0  0  0  0  0  0  0  0  0  0
   15.9057   -7.1499   -1.4849 C   0  0  0  0  0  0  0  0  0  0  0  0
   16.7965   -6.3493   -0.7620 C   0  0  0  0  0  0  0  0  0  0  0  0
   17.7375   -6.7621   -0.4101 H   0  0  0  0  0  0  0  0  0  0  0  0
   16.4770   -5.0148   -0.4859 C   0  0  0  0  0  0  0  0  0  0  0  0
   17.1813   -4.4013    0.0676 H   0  0  0  0  0  0  0  0  0  0  0  0
   15.2565   -4.4659   -0.9150 C   0  0  0  0  0  0  0  0  0  0  0  0
   14.8882   -3.0168   -0.6186 C   0  0  0  0  0  0  0  0  0  0  0  0
   15.4299   -2.0557   -1.6784 C   0  0  0  0  0  0  0  0  0  0  0  0
   15.9805   -2.5427   -2.8793 C   0  0  0  0  0  0  0  0  0  0  0  0
   16.0537   -3.6117   -3.0373 H   0  0  0  0  0  0  0  0  0  0  0  0
   16.4360   -1.6761   -3.8750 C   0  0  0  0  0  0  0  0  0  0  0  0
   16.8600   -2.0706   -4.7942 H   0  0  0  0  0  0  0  0  0  0  0  0
   16.3443   -0.2982   -3.6894 C   0  0  0  0  0  0  0  0  0  0  0  0
   16.6869    0.3874   -4.4577 H   0  0  0  0  0  0  0  0  0  0  0  0
   15.7976    0.2258   -2.5135 C   0  0  0  0  0  0  0  0  0  0  0  0
   15.7439    1.5922   -2.4002 O   0  0  0  0  0  0  0  0  0  0  0  0
   15.0143    2.1258   -1.2854 C   0  0  0  0  0  0  0  0  0  0  0  0
   15.6140    2.0436   -0.3717 H   0  0  0  0  0  0  0  0  0  0  0  0
   14.0923    1.5554   -1.1277 H   0  0  0  0  0  0  0  0  0  0  0  0
   14.6790    3.5937   -1.5749 C   0  0  0  0  0  0  0  0  0  0  0  0
   14.0498    3.9793   -0.7689 H   0  0  0  0  0  0  0  0  0  0  0  0
   15.6055    4.1766   -1.5960 H   0  0  0  0  0  0  0  0  0  0  0  0
   13.9620    3.7378   -2.9250 C   0  0  0  0  0  0  0  0  0  0  0  0
   13.2562    2.9131   -3.0574 H   0  0  0  0  0  0  0  0  0  0  0  0
   14.7117    3.6605   -3.7145 H   0  0  0  0  0  0  0  0  0  0  0  0
   13.2143    5.0072   -3.0462 N   0  0  0  0  0  0  0  0  0  0  0  0
   12.0197    5.0767   -2.1746 C   0  0  0  0  0  0  0  0  0  0  0  0
   12.3127    4.9235   -1.1305 H   0  0  0  0  0  0  0  0  0  0  0  0
   11.3248    4.2721   -2.4451 H   0  0  0  0  0  0  0  0  0  0  0  0
   11.3069    6.4359   -2.3179 C   0  0  0  0  0  0  0  0  0  0  0  0
   10.3961    6.4330   -1.7130 H   0  0  0  0  0  0  0  0  0  0  0  0
   11.9629    7.2319   -1.9462 H   0  0  0  0  0  0  0  0  0  0  0  0
   10.9669    6.7009   -3.6895 O   0  0  0  0  0  0  0  0  0  0  0  0
   12.1549    6.7685   -4.4896 C   0  0  0  0  0  0  0  0  0  0  0  0
   11.8895    7.0013   -5.5216 H   0  0  0  0  0  0  0  0  0  0  0  0
   12.7845    7.5843   -4.1291 H   0  0  0  0  0  0  0  0  0  0  0  0
   12.9385    5.4429   -4.4388 C   0  0  0  0  0  0  0  0  0  0  0  0
   12.3706    4.6720   -4.9672 H   0  0  0  0  0  0  0  0  0  0  0  0
   13.8776    5.5741   -4.9770 H   0  0  0  0  0  0  0  0  0  0  0  0
   15.3343   -0.6604   -1.5231 C   0  0  0  0  0  0  0  0  0  0  0  0
   14.9002   -0.2356   -0.6225 H   0  0  0  0  0  0  0  0  0  0  0  0
   13.3633   -2.8482   -0.4822 C   0  0  0  0  0  0  0  0  0  0  0  0
   12.5281   -2.9321   -1.3804 O   0  0  0  0  0  0  0  0  0  0  0  0
   13.0373   -2.6129    0.8323 N   0  0  0  0  0  0  0  0  0  0  0  0
   11.7164   -2.3140    1.3811 C   0  0  0  0  0  0  0  0  0  0  0  0
   11.6724   -1.2667    1.6946 H   0  0  0  0  0  0  0  0  0  0  0  0
   10.9328   -2.4828    0.6361 H   0  0  0  0  0  0  0  0  0  0  0  0
   11.5040   -2.9499    2.2472 H   0  0  0  0  0  0  0  0  0  0  0  0
   14.2204   -2.5448    1.5276 C   0  0  0  0  0  0  0  0  0  0  0  0
   14.2738   -2.3799    2.8780 N   0  0  0  0  0  0  0  0  0  0  0  0
   15.1743   -2.1315    3.2909 H   0  0  0  0  0  0  0  0  0  0  0  0
   13.4120   -2.1087    3.3489 H   0  0  0  0  0  0  0  0  0  0  0  0
   15.2645   -2.6763    0.7712 N   0  0  0  0  0  4  0  0  0  0  0  0
   16.2070   -2.8085    1.1476 H   0  0  0  0  0  0  0  0  0  0  0  0
   14.3803   -5.2776   -1.6549 C   0  0  0  0  0  0  0  0  0  0  0  0
   13.4410   -4.8682   -2.0144 H   0  0  0  0  0  0  0  0  0  0  0  0
   14.6977   -6.6094   -1.9348 C   0  0  0  0  0  0  0  0  0  0  0  0
   14.0021   -7.2227   -2.4986 H   0  0  0  0  0  0  0  0  0  0  0  0
  1  2  1  0
  2  3  2  0
  3  4  1  0
  3  5  1  0
  5  6  1  0
  5  7  2  0
  7  8  1  0
  8  9  1  0
  9 10  2  0
 10 11  1  0
 10 12  1  0
 12 13  1  0
 12 14  2  0
 14 15  1  0
 14 16  1  0
 16 17  1  0
 17 18  1  0
 18 19  1  0
 18 20  1  0
 18 21  1  0
 21 22  1  0
 21 23  1  0
 21 24  1  0
 24 25  1  0
 24 26  1  0
 24 27  1  0
 27 28  1  0
 28 29  1  0
 28 30  1  0
 28 31  1  0
 31 32  1  0
 31 33  1  0
 31 34  1  0
 34 35  1  0
 35 36  1  0
 35 37  1  0
 35 38  1  0
 38 39  1  0
 38 40  1  0
 16 41  2  0
 41 42  1  0
  8 43  1  0
 43 44  2  0
 43 45  1  0
 45 46  1  0
 46 47  1  0
 46 48  1  0
 46 49  1  0
 45 50  1  0
 50 51  1  0
 51 52  1  0
 51 53  1  0
 50 54  2  0
 54 55  1  0
  7 56  1  0
 56 57  1  0
 56 58  2  0
 58 59  1  0
 58  2  1  0
 54  8  1  0
 41  9  1  0
 38 27  1  0
M  CHG  1  54   1
M  END
>  <score>  (378) 
5.1824

$$$$

     RDKit          3D

 51 54  0  0  0  0  0  0  0  0999 V2000
   16.1871   -8.4126   -1.7411 H   0  0  0  0  0  0  0  0  0  0  0  0
   15.9239   -7.3808   -1.5224 C   0  0  0  0  0  0  0  0  0  0  0  0
   16.8036   -6.5729   -0.7914 C   0  0  0  0  0  0  0  0  0  0  0  0
   17.7569   -6.9657   -0.4505 H   0  0  0  0  0  0  0  0  0  0  0  0
   16.4595   -5.2486   -0.4942 C   0  0  0  0  0  0  0  0  0  0  0  0
   17.1468   -4.6259    0.0730 H   0  0  0  0  0  0  0  0  0  0  0  0
   15.2336   -4.7126   -0.9186 C   0  0  0  0  0  0  0  0  0  0  0  0
   14.8598   -3.2678   -0.6080 C   0  0  0  0  0  0  0  0  0  0  0  0
   15.4112   -2.2998   -1.6457 C   0  0  0  0  0  0  0  0  0  0  0  0
   15.9532   -2.7250   -2.8698 C   0  0  0  0  0  0  0  0  0  0  0  0
   16.0195   -3.7877   -3.0771 H   0  0  0  0  0  0  0  0  0  0  0  0
   16.4028   -1.7974   -3.8189 C   0  0  0  0  0  0  0  0  0  0  0  0
   16.8185   -2.1389   -4.7618 H   0  0  0  0  0  0  0  0  0  0  0  0
   16.3001   -0.4265   -3.5597 C   0  0  0  0  0  0  0  0  0  0  0  0
   16.6342    0.3021   -4.2912 H   0  0  0  0  0  0  0  0  0  0  0  0
   15.7335    0.0209   -2.3651 C   0  0  0  0  0  0  0  0  0  0  0  0
   15.5879    1.3694   -2.1563 O   0  0  0  0  0  0  0  0  0  0  0  0
   14.9881    1.7050   -0.8914 C   0  0  0  0  0  0  0  0  0  0  0  0
   13.9673    1.3119   -0.8577 H   0  0  0  0  0  0  0  0  0  0  0  0
   15.5521    1.2075   -0.0965 H   0  0  0  0  0  0  0  0  0  0  0  0
   14.9487    3.2120   -0.6084 C   0  0  2  0  0  0  0  0  0  0  0  0
   14.7808    3.3454    0.4641 H   0  0  0  0  0  0  0  0  0  0  0  0
   13.8780    3.8386   -1.3302 O   0  0  0  0  0  0  0  0  0  0  0  0
   14.4302    4.4638   -2.4896 C   0  0  0  0  0  0  0  0  0  0  0  0
   13.7893    5.2716   -2.8634 H   0  0  0  0  0  0  0  0  0  0  0  0
   14.5783    3.7244   -3.2848 H   0  0  0  0  0  0  0  0  0  0  0  0
   15.7655    4.9989   -2.0086 C   0  0  0  0  0  0  0  0  0  0  0  0
   16.4771    5.1675   -2.8247 H   0  0  0  0  0  0  0  0  0  0  0  0
   15.6028    5.9399   -1.4841 H   0  0  0  0  0  0  0  0  0  0  0  0
   16.2354    3.9360   -1.0315 C   0  0  0  0  0  0  0  0  0  0  0  0
   16.9147    3.2493   -1.5406 H   0  0  0  0  0  0  0  0  0  0  0  0
   16.7634    4.3673   -0.1731 H   0  0  0  0  0  0  0  0  0  0  0  0
   15.3026   -0.9245   -1.4240 C   0  0  0  0  0  0  0  0  0  0  0  0
   14.8592   -0.5599   -0.5042 H   0  0  0  0  0  0  0  0  0  0  0  0
   13.3385   -3.0652   -0.4858 C   0  0  0  0  0  0  0  0  0  0  0  0
   12.5154   -3.1685   -1.3912 O   0  0  0  0  0  0  0  0  0  0  0  0
   13.0194   -2.7420    0.8168 N   0  0  0  0  0  0  0  0  0  0  0  0
   11.7060   -2.3441    1.3237 C   0  0  0  0  0  0  0  0  0  0  0  0
   11.7036   -1.2891    1.6184 H   0  0  0  0  0  0  0  0  0  0  0  0
   10.9256   -2.4744    0.5659 H   0  0  0  0  0  0  0  0  0  0  0  0
   11.4342   -2.9468    2.1967 H   0  0  0  0  0  0  0  0  0  0  0  0
   14.1998   -2.6919    1.5191 C   0  0  0  0  0  0  0  0  0  0  0  0
   14.2702   -2.4108    2.8485 N   0  0  0  0  0  0  0  0  0  0  0  0
   13.4101   -2.1032    3.3066 H   0  0  0  0  0  0  0  0  0  0  0  0
   15.1721   -2.1397    3.2284 H   0  0  0  0  0  0  0  0  0  0  0  0
   15.2392   -2.9178    0.7761 N   0  0  0  0  0  4  0  0  0  0  0  0
   16.1966   -2.9563    1.1287 H   0  0  0  0  0  0  0  0  0  0  0  0
   14.3648   -5.5299   -1.6643 C   0  0  0  0  0  0  0  0  0  0  0  0
   13.4156   -5.1355   -2.0129 H   0  0  0  0  0  0  0  0  0  0  0  0
   14.7055   -6.8545   -1.9633 C   0  0  0  0  0  0  0  0  0  0  0  0
   14.0245   -7.4744   -2.5393 H   0  0  0  0  0  0  0  0  0  0  0  0
  1  2  1  0
  2  3  2  0
  3  4  1  0
  3  5  1  0
  5  6  1  0
  5  7  2  0
  7  8  1  0
  8  9  1  0
  9 10  2  0
 10 11  1  0
 10 12  1  0
 12 13  1  0
 12 14  2  0
 14 15  1  0
 14 16  1  0
 16 17  1  0
 17 18  1  0
 18 19  1  0
 18 20  1  0
 18 21  1  0
 21 22  1  6
 21 23  1  0
 23 24  1  0
 24 25  1  0
 24 26  1  0
 24 27  1  0
 27 28  1  0
 27 29  1  0
 27 30  1  0
 30 31  1  0
 30 32  1  0
 16 33  2  0
 33 34  1  0
  8 35  1  0
 35 36  2  0
 35 37  1  0
 37 38  1  0
 38 39  1  0
 38 40  1  0
 38 41  1  0
 37 42  1  0
 42 43  1  0
 43 44  1  0
 43 45  1  0
 42 46  2  0
 46 47  1  0
  7 48  1  0
 48 49  1  0
 48 50  2  0
 50 51  1  0
 50  2  1  0
 46  8  1  0
 33  9  1  0
 30 21  1  0
M  CHG  1  46   1
M  END
>  <score>  (379) 
5.18085

$$$$

     RDKit          3D

 47 50  0  0  0  0  0  0  0  0999 V2000
   10.9290  -12.3694   -3.5174 H   0  0  0  0  0  0  0  0  0  0  0  0
   10.8142  -11.4562   -2.9464 C   0  0  0  0  0  0  0  0  0  0  0  0
   11.8905  -10.6796   -2.7857 N   0  0  0  0  0  0  0  0  0  0  0  0
   11.7577   -9.5333   -2.1113 C   0  0  0  0  0  0  0  0  0  0  0  0
   12.9017   -8.6945   -1.9590 C   0  0  0  0  0  0  0  0  0  0  0  0
   13.8583   -7.9874   -1.7479 C   0  0  0  0  0  0  0  0  0  0  0  0
   14.8979   -7.0648   -1.4352 C   0  0  0  0  0  0  0  0  0  0  0  0
   16.2184   -7.4631   -1.2250 C   0  0  0  0  0  0  0  0  0  0  0  0
   16.4809   -8.5093   -1.3455 H   0  0  0  0  0  0  0  0  0  0  0  0
   17.1797   -6.5161   -0.8379 C   0  0  0  0  0  0  0  0  0  0  0  0
   18.2071   -6.8223   -0.6575 H   0  0  0  0  0  0  0  0  0  0  0  0
   16.8025   -5.1759   -0.6435 C   0  0  0  0  0  0  0  0  0  0  0  0
   17.5241   -4.4339   -0.3035 H   0  0  0  0  0  0  0  0  0  0  0  0
   15.4711   -4.7830   -0.8660 C   0  0  0  0  0  0  0  0  0  0  0  0
   14.9833   -3.3748   -0.6151 C   0  0  0  0  0  0  0  0  0  0  0  0
   15.4372   -2.3881   -1.6714 C   0  0  0  0  0  0  0  0  0  0  0  0
   15.9373   -2.7888   -2.9236 C   0  0  0  0  0  0  0  0  0  0  0  0
   15.9955   -3.8459   -3.1715 H   0  0  0  0  0  0  0  0  0  0  0  0
   16.3726   -1.8302   -3.8479 C   0  0  0  0  0  0  0  0  0  0  0  0
   16.7651   -2.1408   -4.8104 H   0  0  0  0  0  0  0  0  0  0  0  0
   16.3027   -0.4689   -3.5331 C   0  0  0  0  0  0  0  0  0  0  0  0
   16.6548    0.2705   -4.2456 H   0  0  0  0  0  0  0  0  0  0  0  0
   15.7644   -0.0640   -2.3090 C   0  0  0  0  0  0  0  0  0  0  0  0
   15.6844    0.9894   -2.0622 H   0  0  0  0  0  0  0  0  0  0  0  0
   15.3260   -1.0193   -1.3936 C   0  0  0  0  0  0  0  0  0  0  0  0
   14.9072   -0.7021   -0.4427 H   0  0  0  0  0  0  0  0  0  0  0  0
   13.4531   -3.2874   -0.4242 C   0  0  0  0  0  0  0  0  0  0  0  0
   12.5758   -3.6407   -1.2090 O   0  0  0  0  0  0  0  0  0  0  0  0
   13.1785   -2.7774    0.8274 N   0  0  0  0  0  0  0  0  0  0  0  0
   11.8736   -2.3565    1.3287 C   0  0  0  0  0  0  0  0  0  0  0  0
   11.8744   -1.2834    1.5476 H   0  0  0  0  0  0  0  0  0  0  0  0
   11.0886   -2.5479    0.5898 H   0  0  0  0  0  0  0  0  0  0  0  0
   11.6223   -2.8999    2.2448 H   0  0  0  0  0  0  0  0  0  0  0  0
   14.3854   -2.5818    1.4559 C   0  0  0  0  0  0  0  0  0  0  0  0
   14.5513   -2.0693    2.7056 N   0  0  0  0  0  0  0  0  0  0  0  0
   13.7356   -2.0012    3.3091 H   0  0  0  0  0  0  0  0  0  0  0  0
   15.4704   -2.1658    3.1299 H   0  0  0  0  0  0  0  0  0  0  0  0
   15.3923   -2.9362    0.7295 N   0  0  0  0  0  4  0  0  0  0  0  0
   16.3666   -2.8708    1.0248 H   0  0  0  0  0  0  0  0  0  0  0  0
   14.5440   -5.7345   -1.2926 C   0  0  0  0  0  0  0  0  0  0  0  0
   13.5112   -5.4586   -1.4801 H   0  0  0  0  0  0  0  0  0  0  0  0
   10.5410   -9.1353   -1.5606 C   0  0  0  0  0  0  0  0  0  0  0  0
   10.4873   -8.1890   -1.0366 H   0  0  0  0  0  0  0  0  0  0  0  0
    9.4287   -9.9628   -1.6763 C   0  0  0  0  0  0  0  0  0  0  0  0
    8.4853   -9.6742   -1.2236 H   0  0  0  0  0  0  0  0  0  0  0  0
    9.5790  -11.1542   -2.3843 C   0  0  0  0  0  0  0  0  0  0  0  0
    8.7670  -11.8613   -2.5136 H   0  0  0  0  0  0  0  0  0  0  0  0
  1  2  1  0
  2  3  2  0
  3  4  1  0
  4  5  1  0
  5  6  3  0
  6  7  1  0
  7  8  2  0
  8  9  1  0
  8 10  1  0
 10 11  1  0
 10 12  2  0
 12 13  1  0
 12 14  1  0
 14 15  1  0
 15 16  1  0
 16 17  2  0
 17 18  1  0
 17 19  1  0
 19 20  1  0
 19 21  2  0
 21 22  1  0
 21 23  1  0
 23 24  1  0
 23 25  2  0
 25 26  1  0
 15 27  1  0
 27 28  2  0
 27 29  1  0
 29 30  1  0
 30 31  1  0
 30 32  1  0
 30 33  1  0
 29 34  1  0
 34 35  1  0
 35 36  1  0
 35 37  1  0
 34 38  2  0
 38 39  1  0
 14 40  2  0
 40 41  1  0
  4 42  2  0
 42 43  1  0
 42 44  1  0
 44 45  1  0
 44 46  2  0
 46 47  1  0
 46  2  1  0
 40  7  1  0
 38 15  1  0
 25 16  1  0
M  CHG  1  38   1
M  END
>  <score>  (380) 
5.18045

$$$$

     RDKit          3D

 38 40  0  0  0  0  0  0  0  0999 V2000
   12.7909   -9.8201   -3.3959 H   0  0  0  0  0  0  0  0  0  0  0  0
   13.2965   -8.9775   -2.9637 C   0  0  0  0  0  0  0  0  0  0  0  0
   13.8727   -8.0023   -2.4986 C   0  0  0  0  0  0  0  0  0  0  0  0
   14.6970   -6.9855   -1.9085 C   0  0  0  0  0  0  0  0  0  0  0  0
   15.9372   -7.4102   -1.4304 C   0  0  0  0  0  0  0  0  0  0  0  0
   16.2038   -8.4547   -1.5526 H   0  0  0  0  0  0  0  0  0  0  0  0
   16.8061   -6.5332   -0.7785 C   0  0  0  0  0  0  0  0  0  0  0  0
   17.7424   -6.9122   -0.3746 H   0  0  0  0  0  0  0  0  0  0  0  0
   16.4338   -5.1969   -0.6015 C   0  0  0  0  0  0  0  0  0  0  0  0
   17.0817   -4.5226   -0.0431 H   0  0  0  0  0  0  0  0  0  0  0  0
   15.2007   -4.7185   -1.0751 C   0  0  0  0  0  0  0  0  0  0  0  0
   14.8212   -3.2623   -0.7717 C   0  0  0  0  0  0  0  0  0  0  0  0
   15.3841   -2.2547   -1.7740 C   0  0  0  0  0  0  0  0  0  0  0  0
   15.9395   -2.6543   -3.0032 C   0  0  0  0  0  0  0  0  0  0  0  0
   15.9894   -3.7132   -3.2338 H   0  0  0  0  0  0  0  0  0  0  0  0
   16.4193   -1.7069   -3.9228 C   0  0  0  0  0  0  0  0  0  0  0  0
   16.8457   -2.0179   -4.8723 H   0  0  0  0  0  0  0  0  0  0  0  0
   16.3465   -0.3439   -3.6202 C   0  0  0  0  0  0  0  0  0  0  0  0
   16.7234    0.3941   -4.3233 H   0  0  0  0  0  0  0  0  0  0  0  0
   15.7933    0.0695   -2.4048 C   0  0  0  0  0  0  0  0  0  0  0  0
   15.7339    1.1271   -2.1665 H   0  0  0  0  0  0  0  0  0  0  0  0
   15.3140   -0.8783   -1.4925 C   0  0  0  0  0  0  0  0  0  0  0  0
   14.8800   -0.5432   -0.5539 H   0  0  0  0  0  0  0  0  0  0  0  0
   13.3014   -3.0523   -0.5915 C   0  0  0  0  0  0  0  0  0  0  0  0
   12.4389   -3.1350   -1.4655 O   0  0  0  0  0  0  0  0  0  0  0  0
   13.0279   -2.6846    0.7142 N   0  0  0  0  0  0  0  0  0  0  0  0
   11.7255   -2.3145    1.2768 C   0  0  0  0  0  0  0  0  0  0  0  0
   11.5025   -2.9202    2.1662 H   0  0  0  0  0  0  0  0  0  0  0  0
   10.9211   -2.4762    0.5459 H   0  0  0  0  0  0  0  0  0  0  0  0
   11.7168   -1.2534    1.5614 H   0  0  0  0  0  0  0  0  0  0  0  0
   14.2430   -2.6223    1.3679 C   0  0  0  0  0  0  0  0  0  0  0  0
   14.4120   -2.2939    2.6774 N   0  0  0  0  0  0  0  0  0  0  0  0
   13.6008   -2.1234    3.2669 H   0  0  0  0  0  0  0  0  0  0  0  0
   15.3513   -2.3292    3.0803 H   0  0  0  0  0  0  0  0  0  0  0  0
   15.2430   -2.9189    0.6084 N   0  0  0  0  0  4  0  0  0  0  0  0
   16.2125   -2.9730    0.9446 H   0  0  0  0  0  0  0  0  0  0  0  0
   14.3383   -5.6250   -1.7484 C   0  0  0  0  0  0  0  0  0  0  0  0
   13.3808   -5.2723   -2.1147 H   0  0  0  0  0  0  0  0  0  0  0  0
  1  2  1  0
  2  3  3  0
  3  4  1  0
  4  5  2  0
  5  6  1  0
  5  7  1  0
  7  8  1  0
  7  9  2  0
  9 10  1  0
  9 11  1  0
 11 12  1  0
 12 13  1  0
 13 14  2  0
 14 15  1  0
 14 16  1  0
 16 17  1  0
 16 18  2  0
 18 19  1  0
 18 20  1  0
 20 21  1  0
 20 22  2  0
 22 23  1  0
 12 24  1  0
 24 25  2  0
 24 26  1  0
 26 27  1  0
 27 28  1  0
 27 29  1  0
 27 30  1  0
 26 31  1  0
 31 32  1  0
 32 33  1  0
 32 34  1  0
 31 35  2  0
 35 36  1  0
 11 37  2  0
 37 38  1  0
 37  4  1  0
 35 12  1  0
 22 13  1  0
M  CHG  1  35   1
M  END
>  <score>  (381) 
5.17173

$$$$

     RDKit          3D

 42 44  0  0  0  0  0  0  0  0999 V2000
   16.1313   -8.4936   -1.6103 H   0  0  0  0  0  0  0  0  0  0  0  0
   15.8561   -7.4523   -1.4660 C   0  0  0  0  0  0  0  0  0  0  0  0
   16.7246   -6.5923   -0.7928 C   0  0  0  0  0  0  0  0  0  0  0  0
   17.6797   -6.9540   -0.4233 H   0  0  0  0  0  0  0  0  0  0  0  0
   16.3757   -5.2510   -0.6024 C   0  0  0  0  0  0  0  0  0  0  0  0
   17.0740   -4.6071   -0.0785 H   0  0  0  0  0  0  0  0  0  0  0  0
   15.1532   -4.7280   -1.0683 C   0  0  0  0  0  0  0  0  0  0  0  0
   14.7985   -3.2516   -0.7874 C   0  0  0  0  0  0  0  0  0  0  0  0
   15.3881   -2.2473   -1.7871 C   0  0  0  0  0  0  0  0  0  0  0  0
   15.9476   -2.6450   -3.0171 C   0  0  0  0  0  0  0  0  0  0  0  0
   16.0117   -3.6967   -3.2826 H   0  0  0  0  0  0  0  0  0  0  0  0
   16.4275   -1.6903   -3.9237 C   0  0  0  0  0  0  0  0  0  0  0  0
   16.8603   -2.0083   -4.8663 H   0  0  0  0  0  0  0  0  0  0  0  0
   16.3413   -0.3254   -3.6282 C   0  0  0  0  0  0  0  0  0  0  0  0
   16.6925    0.4016   -4.3539 H   0  0  0  0  0  0  0  0  0  0  0  0
   15.7914    0.1058   -2.4129 C   0  0  0  0  0  0  0  0  0  0  0  0
   15.6664    1.5848   -2.1010 C   0  0  0  0  0  0  0  0  0  0  0  0
   15.7803    1.7553   -1.0241 H   0  0  0  0  0  0  0  0  0  0  0  0
   16.4585    2.1491   -2.6070 H   0  0  0  0  0  0  0  0  0  0  0  0
   14.3065    2.1144   -2.5522 C   0  0  0  0  0  0  0  0  0  0  0  0
   13.5002    1.5853   -2.0362 H   0  0  0  0  0  0  0  0  0  0  0  0
   14.2220    3.1803   -2.3255 H   0  0  0  0  0  0  0  0  0  0  0  0
   14.1814    1.9778   -3.6301 H   0  0  0  0  0  0  0  0  0  0  0  0
   15.3229   -0.8631   -1.5071 C   0  0  0  0  0  0  0  0  0  0  0  0
   14.8921   -0.5263   -0.5684 H   0  0  0  0  0  0  0  0  0  0  0  0
   13.2830   -3.0120   -0.6192 C   0  0  0  0  0  0  0  0  0  0  0  0
   12.4151   -3.0716   -1.4875 O   0  0  0  0  0  0  0  0  0  0  0  0
   13.0174   -2.6627    0.6969 N   0  0  0  0  0  0  0  0  0  0  0  0
   11.7156   -2.3116    1.2626 C   0  0  0  0  0  0  0  0  0  0  0  0
   10.9181   -2.4788    0.5337 H   0  0  0  0  0  0  0  0  0  0  0  0
   11.6927   -1.2565    1.5584 H   0  0  0  0  0  0  0  0  0  0  0  0
   11.4998   -2.9241    2.1456 H   0  0  0  0  0  0  0  0  0  0  0  0
   14.2195   -2.6320    1.3683 C   0  0  0  0  0  0  0  0  0  0  0  0
   14.3862   -2.3463    2.6932 N   0  0  0  0  0  0  0  0  0  0  0  0
   13.5769   -2.1261    3.2746 H   0  0  0  0  0  0  0  0  0  0  0  0
   15.3206   -2.3622    3.1021 H   0  0  0  0  0  0  0  0  0  0  0  0
   15.2190   -2.9102    0.5899 N   0  0  0  0  0  4  0  0  0  0  0  0
   16.1958   -2.8806    0.8896 H   0  0  0  0  0  0  0  0  0  0  0  0
   14.2951   -5.6086   -1.7705 C   0  0  0  0  0  0  0  0  0  0  0  0
   13.3515   -5.2624   -2.1830 H   0  0  0  0  0  0  0  0  0  0  0  0
   14.6427   -6.9597   -1.9583 C   0  0  0  0  0  0  0  0  0  0  0  0
   13.9732   -7.6306   -2.4899 H   0  0  0  0  0  0  0  0  0  0  0  0
  1  2  1  0
  2  3  2  0
  3  4  1  0
  3  5  1  0
  5  6  1  0
  5  7  2  0
  7  8  1  0
  8  9  1  0
  9 10  2  0
 10 11  1  0
 10 12  1  0
 12 13  1  0
 12 14  2  0
 14 15  1  0
 14 16  1  0
 16 17  1  0
 17 18  1  0
 17 19  1  0
 17 20  1  0
 20 21  1  0
 20 22  1  0
 20 23  1  0
 16 24  2  0
 24 25  1  0
  8 26  1  0
 26 27  2  0
 26 28  1  0
 28 29  1  0
 29 30  1  0
 29 31  1  0
 29 32  1  0
 28 33  1  0
 33 34  1  0
 34 35  1  0
 34 36  1  0
 33 37  2  0
 37 38  1  0
  7 39  1  0
 39 40  1  0
 39 41  2  0
 41 42  1  0
 41  2  1  0
 37  8  1  0
 24  9  1  0
M  CHG  1  37   1
M  END
>  <score>  (382) 
5.17146

$$$$

     RDKit          3D

 47 50  0  0  0  0  0  0  0  0999 V2000
    8.2013   -8.0199   -2.0109 H   0  0  0  0  0  0  0  0  0  0  0  0
    9.2882   -8.0045   -2.0112 C   0  0  0  0  0  0  0  0  0  0  0  0
    9.9198   -6.9425   -1.4807 N   0  0  0  0  0  0  0  0  0  0  0  0
   11.2764   -6.9435   -1.4371 C   0  0  0  0  0  0  0  0  0  0  0  0
   11.7565   -6.0846   -0.9802 H   0  0  0  0  0  0  0  0  0  0  0  0
   12.0772   -7.9999   -1.9507 C   0  0  0  0  0  0  0  0  0  0  0  0
   13.4998   -8.0636   -1.9755 N   0  0  0  0  0  0  0  0  0  0  0  0
   13.9021   -8.9597   -2.2523 H   0  0  0  0  0  0  0  0  0  0  0  0
   14.4403   -7.0942   -1.5862 C   0  0  0  0  0  0  0  0  0  0  0  0
   15.7525   -7.5292   -1.3617 C   0  0  0  0  0  0  0  0  0  0  0  0
   15.9823   -8.5798   -1.4812 H   0  0  0  0  0  0  0  0  0  0  0  0
   16.7570   -6.6385   -0.9657 C   0  0  0  0  0  0  0  0  0  0  0  0
   17.7750   -6.9796   -0.7944 H   0  0  0  0  0  0  0  0  0  0  0  0
   16.4434   -5.2948   -0.7716 C   0  0  0  0  0  0  0  0  0  0  0  0
   17.2125   -4.6063   -0.4318 H   0  0  0  0  0  0  0  0  0  0  0  0
   15.1404   -4.8225   -0.9906 C   0  0  0  0  0  0  0  0  0  0  0  0
   14.8067   -3.3681   -0.6911 C   0  0  0  0  0  0  0  0  0  0  0  0
   15.3243   -2.3789   -1.7287 C   0  0  0  0  0  0  0  0  0  0  0  0
   15.8640   -2.8001   -2.9566 C   0  0  0  0  0  0  0  0  0  0  0  0
   15.9065   -3.8591   -3.1895 H   0  0  0  0  0  0  0  0  0  0  0  0
   16.3638   -1.8700   -3.8789 C   0  0  0  0  0  0  0  0  0  0  0  0
   16.7949   -2.2030   -4.8170 H   0  0  0  0  0  0  0  0  0  0  0  0
   16.3259   -0.5030   -3.5896 C   0  0  0  0  0  0  0  0  0  0  0  0
   16.7363    0.2166   -4.2933 H   0  0  0  0  0  0  0  0  0  0  0  0
   15.7620   -0.0658   -2.3876 C   0  0  0  0  0  0  0  0  0  0  0  0
   15.7261    0.9953   -2.1554 H   0  0  0  0  0  0  0  0  0  0  0  0
   15.2589   -0.9972   -1.4713 C   0  0  0  0  0  0  0  0  0  0  0  0
   14.8271   -0.6433   -0.5393 H   0  0  0  0  0  0  0  0  0  0  0  0
   13.3045   -3.1603   -0.4269 C   0  0  0  0  0  0  0  0  0  0  0  0
   12.3878   -3.3296   -1.2292 O   0  0  0  0  0  0  0  0  0  0  0  0
   13.1138   -2.7624    0.8790 N   0  0  0  0  0  0  0  0  0  0  0  0
   11.8633   -2.2880    1.4646 C   0  0  0  0  0  0  0  0  0  0  0  0
   11.0062   -2.7770    0.9872 H   0  0  0  0  0  0  0  0  0  0  0  0
   11.7656   -1.2050    1.3329 H   0  0  0  0  0  0  0  0  0  0  0  0
   11.8271   -2.5110    2.5352 H   0  0  0  0  0  0  0  0  0  0  0  0
   14.3607   -2.6794    1.4526 C   0  0  0  0  0  0  0  0  0  0  0  0
   14.6221   -2.2916    2.7253 N   0  0  0  0  0  0  0  0  0  0  0  0
   15.5497   -2.5184    3.0732 H   0  0  0  0  0  0  0  0  0  0  0  0
   13.8495   -2.2641    3.3810 H   0  0  0  0  0  0  0  0  0  0  0  0
   15.3119   -3.0165    0.6519 N   0  0  0  0  0  4  0  0  0  0  0  0
   16.3032   -2.9963    0.9060 H   0  0  0  0  0  0  0  0  0  0  0  0
   14.1519   -5.7312   -1.4303 C   0  0  0  0  0  0  0  0  0  0  0  0
   13.1488   -5.3845   -1.6444 H   0  0  0  0  0  0  0  0  0  0  0  0
   11.3864   -9.0903   -2.5004 C   0  0  0  0  0  0  0  0  0  0  0  0
   11.9345   -9.9253   -2.9210 H   0  0  0  0  0  0  0  0  0  0  0  0
    9.9865   -9.0970   -2.5327 C   0  0  0  0  0  0  0  0  0  0  0  0
    9.4478   -9.9497   -2.9411 H   0  0  0  0  0  0  0  0  0  0  0  0
  1  2  1  0
  2  3  2  0
  3  4  1  0
  4  5  1  0
  4  6  2  0
  6  7  1  0
  7  8  1  0
  7  9  1  0
  9 10  2  0
 10 11  1  0
 10 12  1  0
 12 13  1  0
 12 14  2  0
 14 15  1  0
 14 16  1  0
 16 17  1  0
 17 18  1  0
 18 19  2  0
 19 20  1  0
 19 21  1  0
 21 22  1  0
 21 23  2  0
 23 24  1  0
 23 25  1  0
 25 26  1  0
 25 27  2  0
 27 28  1  0
 17 29  1  0
 29 30  2  0
 29 31  1  0
 31 32  1  0
 32 33  1  0
 32 34  1  0
 32 35  1  0
 31 36  1  0
 36 37  1  0
 37 38  1  0
 37 39  1  0
 36 40  2  0
 40 41  1  0
 16 42  2  0
 42 43  1  0
  6 44  1  0
 44 45  1  0
 44 46  2  0
 46 47  1  0
 46  2  1  0
 42  9  1  0
 40 17  1  0
 27 18  1  0
M  CHG  1  40   1
M  END
>  <score>  (383) 
5.16872

$$$$

     RDKit          3D

 47 50  0  0  0  0  0  0  0  0999 V2000
    8.6438   -5.3917    0.1517 H   0  0  0  0  0  0  0  0  0  0  0  0
    9.5808   -5.8775   -0.0932 C   0  0  0  0  0  0  0  0  0  0  0  0
    9.8220   -6.7878   -1.5684 S   0  0  0  0  0  0  0  0  0  0  0  0
   11.4438   -7.2124   -1.0474 C   0  0  0  0  0  0  0  0  0  0  0  0
   12.1963   -8.1915   -1.8188 C   0  0  0  0  0  0  0  0  0  0  0  0
   11.5924   -9.0963   -2.3718 O   0  0  0  0  0  0  0  0  0  0  0  0
   13.5613   -8.3040   -1.8804 N   0  0  0  0  0  0  0  0  0  0  0  0
   13.8982   -9.1939   -2.2300 H   0  0  0  0  0  0  0  0  0  0  0  0
   14.4930   -7.3375   -1.5342 C   0  0  0  0  0  0  0  0  0  0  0  0
   15.8310   -7.7180   -1.4198 C   0  0  0  0  0  0  0  0  0  0  0  0
   16.1198   -8.7428   -1.6324 H   0  0  0  0  0  0  0  0  0  0  0  0
   16.7933   -6.7932   -1.0022 C   0  0  0  0  0  0  0  0  0  0  0  0
   17.8249   -7.0979   -0.8544 H   0  0  0  0  0  0  0  0  0  0  0  0
   16.4217   -5.4684   -0.7539 C   0  0  0  0  0  0  0  0  0  0  0  0
   17.1797   -4.7541   -0.4390 H   0  0  0  0  0  0  0  0  0  0  0  0
   15.0841   -5.0528   -0.8790 C   0  0  0  0  0  0  0  0  0  0  0  0
   14.7157   -3.5942   -0.5805 C   0  0  0  0  0  0  0  0  0  0  0  0
   15.2281   -2.5940   -1.6235 C   0  0  0  0  0  0  0  0  0  0  0  0
   15.7579   -3.0152   -2.8549 C   0  0  0  0  0  0  0  0  0  0  0  0
   15.8027   -4.0759   -3.0775 H   0  0  0  0  0  0  0  0  0  0  0  0
   16.2490   -2.0911   -3.7874 C   0  0  0  0  0  0  0  0  0  0  0  0
   16.6734   -2.4354   -4.7233 H   0  0  0  0  0  0  0  0  0  0  0  0
   16.2100   -0.7228   -3.5137 C   0  0  0  0  0  0  0  0  0  0  0  0
   16.5969   -0.0143   -4.2430 H   0  0  0  0  0  0  0  0  0  0  0  0
   15.6602   -0.2787   -2.3092 C   0  0  0  0  0  0  0  0  0  0  0  0
   15.6344    0.7876   -2.0994 H   0  0  0  0  0  0  0  0  0  0  0  0
   15.1655   -1.2037   -1.3771 C   0  0  0  0  0  0  0  0  0  0  0  0
   14.7505   -0.8253   -0.4459 H   0  0  0  0  0  0  0  0  0  0  0  0
   13.2116   -3.3661   -0.3217 C   0  0  0  0  0  0  0  0  0  0  0  0
   12.2732   -3.6359   -1.0715 O   0  0  0  0  0  0  0  0  0  0  0  0
   13.0360   -2.8136    0.9314 N   0  0  0  0  0  0  0  0  0  0  0  0
   11.7972   -2.2511    1.4754 C   0  0  0  0  0  0  0  0  0  0  0  0
   11.7532   -1.1677    1.3161 H   0  0  0  0  0  0  0  0  0  0  0  0
   11.7170   -2.4413    2.5511 H   0  0  0  0  0  0  0  0  0  0  0  0
   10.9256   -2.7017    0.9936 H   0  0  0  0  0  0  0  0  0  0  0  0
   14.2830   -2.7296    1.5114 C   0  0  0  0  0  0  0  0  0  0  0  0
   14.5250   -2.1828    2.7380 N   0  0  0  0  0  0  0  0  0  0  0  0
   15.4271   -2.3649    3.1759 H   0  0  0  0  0  0  0  0  0  0  0  0
   13.7235   -1.9936    3.3335 H   0  0  0  0  0  0  0  0  0  0  0  0
   15.2185   -3.2054    0.7561 N   0  0  0  0  0  4  0  0  0  0  0  0
   16.2114   -3.1589    0.9959 H   0  0  0  0  0  0  0  0  0  0  0  0
   14.1234   -6.0108   -1.2774 C   0  0  0  0  0  0  0  0  0  0  0  0
   13.0777   -5.7489   -1.4022 H   0  0  0  0  0  0  0  0  0  0  0  0
   11.7956   -6.6181    0.1454 C   0  0  0  0  0  0  0  0  0  0  0  0
   12.7393   -6.7729    0.6644 H   0  0  0  0  0  0  0  0  0  0  0  0
   10.6930   -5.8605    0.7062 C   0  0  0  0  0  0  0  0  0  0  0  0
   10.7394   -5.3737    1.6742 H   0  0  0  0  0  0  0  0  0  0  0  0
  1  2  1  0
  2  3  1  0
  3  4  1  0
  4  5  1  0
  5  6  2  0
  5  7  1  0
  7  8  1  0
  7  9  1  0
  9 10  2  0
 10 11  1  0
 10 12  1  0
 12 13  1  0
 12 14  2  0
 14 15  1  0
 14 16  1  0
 16 17  1  0
 17 18  1  0
 18 19  2  0
 19 20  1  0
 19 21  1  0
 21 22  1  0
 21 23  2  0
 23 24  1  0
 23 25  1  0
 25 26  1  0
 25 27  2  0
 27 28  1  0
 17 29  1  0
 29 30  2  0
 29 31  1  0
 31 32  1  0
 32 33  1  0
 32 34  1  0
 32 35  1  0
 31 36  1  0
 36 37  1  0
 37 38  1  0
 37 39  1  0
 36 40  2  0
 40 41  1  0
 16 42  2  0
 42 43  1  0
  4 44  2  0
 44 45  1  0
 44 46  1  0
 46 47  1  0
 46  2  2  0
 42  9  1  0
 40 17  1  0
 27 18  1  0
M  CHG  1  40   1
M  END
>  <score>  (384) 
5.16536

$$$$

     RDKit          3D

 49 52  0  0  0  0  0  0  0  0999 V2000
   11.4519  -11.7946   -3.5279 H   0  0  0  0  0  0  0  0  0  0  0  0
   11.0403  -10.8871   -3.0966 C   0  0  0  0  0  0  0  0  0  0  0  0
   11.8713   -9.9316   -2.6391 N   0  0  0  0  0  0  0  0  0  0  0  0
   11.3780   -8.7574   -2.1534 C   0  0  0  0  0  0  0  0  0  0  0  0
   12.3032   -7.6547   -1.6503 C   0  0  0  0  0  0  0  0  0  0  0  0
   11.8314   -6.6720   -1.0821 O   0  0  0  0  0  0  0  0  0  0  0  0
   13.6900   -7.7017   -1.8279 N   0  0  0  0  0  0  0  0  0  0  0  0
   14.0715   -8.5525   -2.2258 H   0  0  0  0  0  0  0  0  0  0  0  0
   14.6227   -6.7472   -1.4071 C   0  0  0  0  0  0  0  0  0  0  0  0
   15.9264   -7.1838   -1.1981 C   0  0  0  0  0  0  0  0  0  0  0  0
   16.1401   -8.2334   -1.3405 H   0  0  0  0  0  0  0  0  0  0  0  0
   16.9307   -6.2995   -0.7921 C   0  0  0  0  0  0  0  0  0  0  0  0
   17.9410   -6.6564   -0.6220 H   0  0  0  0  0  0  0  0  0  0  0  0
   16.6302   -4.9515   -0.5956 C   0  0  0  0  0  0  0  0  0  0  0  0
   17.4195   -4.2711   -0.2795 H   0  0  0  0  0  0  0  0  0  0  0  0
   15.3206   -4.4813   -0.7992 C   0  0  0  0  0  0  0  0  0  0  0  0
   14.9708   -3.0160   -0.5671 C   0  0  0  0  0  0  0  0  0  0  0  0
   15.5097   -2.0728   -1.6379 C   0  0  0  0  0  0  0  0  0  0  0  0
   15.9968   -2.5506   -2.8679 C   0  0  0  0  0  0  0  0  0  0  0  0
   16.0296   -3.6200   -3.0540 H   0  0  0  0  0  0  0  0  0  0  0  0
   16.4305   -1.6629   -3.8617 C   0  0  0  0  0  0  0  0  0  0  0  0
   16.8070   -2.0413   -4.8063 H   0  0  0  0  0  0  0  0  0  0  0  0
   16.3748   -0.2836   -3.6437 C   0  0  0  0  0  0  0  0  0  0  0  0
   16.7139    0.4048   -4.4129 H   0  0  0  0  0  0  0  0  0  0  0  0
   15.8747    0.2066   -2.4342 C   0  0  0  0  0  0  0  0  0  0  0  0
   15.8162    1.2768   -2.2608 H   0  0  0  0  0  0  0  0  0  0  0  0
   15.4423   -0.6819   -1.4428 C   0  0  0  0  0  0  0  0  0  0  0  0
   15.0416   -0.2907   -0.5115 H   0  0  0  0  0  0  0  0  0  0  0  0
   13.4510   -2.8144   -0.4297 C   0  0  0  0  0  0  0  0  0  0  0  0
   12.6057   -2.9514   -1.3100 O   0  0  0  0  0  0  0  0  0  0  0  0
   13.1496   -2.4613    0.8702 N   0  0  0  0  0  0  0  0  0  0  0  0
   11.8145   -2.2375    1.4202 C   0  0  0  0  0  0  0  0  0  0  0  0
   11.6950   -1.1898    1.7142 H   0  0  0  0  0  0  0  0  0  0  0  0
   11.6446   -2.8716    2.2977 H   0  0  0  0  0  0  0  0  0  0  0  0
   11.0411   -2.4732    0.6798 H   0  0  0  0  0  0  0  0  0  0  0  0
   14.3430   -2.3868    1.5501 C   0  0  0  0  0  0  0  0  0  0  0  0
   14.4753   -2.1265    2.8788 N   0  0  0  0  0  0  0  0  0  0  0  0
   13.6418   -2.0611    3.4602 H   0  0  0  0  0  0  0  0  0  0  0  0
   15.3970   -2.2053    3.3034 H   0  0  0  0  0  0  0  0  0  0  0  0
   15.3707   -2.6203    0.8006 N   0  0  0  0  0  4  0  0  0  0  0  0
   16.3088   -2.7653    1.1760 H   0  0  0  0  0  0  0  0  0  0  0  0
   14.3233   -5.3950   -1.2123 C   0  0  0  0  0  0  0  0  0  0  0  0
   13.3125   -5.0430   -1.3901 H   0  0  0  0  0  0  0  0  0  0  0  0
    9.9662   -8.5643   -2.1484 C   0  0  0  0  0  0  0  0  0  0  0  0
    9.5386   -7.6389   -1.7818 H   0  0  0  0  0  0  0  0  0  0  0  0
    9.0970   -9.5334   -2.6583 C   0  0  0  0  0  0  0  0  0  0  0  0
    8.0150   -9.3818   -2.7103 H   0  0  0  0  0  0  0  0  0  0  0  0
    9.6580  -10.7155   -3.1232 C   0  0  0  0  0  0  0  0  0  0  0  0
    9.0426  -11.4998   -3.5428 H   0  0  0  0  0  0  0  0  0  0  0  0
  1  2  1  0
  2  3  2  0
  3  4  1  0
  4  5  1  0
  5  6  2  0
  5  7  1  0
  7  8  1  0
  7  9  1  0
  9 10  2  0
 10 11  1  0
 10 12  1  0
 12 13  1  0
 12 14  2  0
 14 15  1  0
 14 16  1  0
 16 17  1  0
 17 18  1  0
 18 19  2  0
 19 20  1  0
 19 21  1  0
 21 22  1  0
 21 23  2  0
 23 24  1  0
 23 25  1  0
 25 26  1  0
 25 27  2  0
 27 28  1  0
 17 29  1  0
 29 30  2  0
 29 31  1  0
 31 32  1  0
 32 33  1  0
 32 34  1  0
 32 35  1  0
 31 36  1  0
 36 37  1  0
 37 38  1  0
 37 39  1  0
 36 40  2  0
 40 41  1  0
 16 42  2  0
 42 43  1  0
  4 44  2  0
 44 45  1  0
 44 46  1  0
 46 47  1  0
 46 48  2  0
 48 49  1  0
 48  2  1  0
 42  9  1  0
 40 17  1  0
 27 18  1  0
M  CHG  1  40   1
M  END
>  <score>  (385) 
5.16246

$$$$

     RDKit          3D

 48 51  0  0  0  0  0  0  0  0999 V2000
   13.3068  -11.0265   -3.4324 H   0  0  0  0  0  0  0  0  0  0  0  0
   12.9319  -10.0844   -3.0363 C   0  0  0  0  0  0  0  0  0  0  0  0
   13.8452   -9.1491   -2.7405 N   0  0  0  0  0  0  0  0  0  0  0  0
   13.4405   -7.9883   -2.1999 C   0  0  0  0  0  0  0  0  0  0  0  0
   14.4566   -7.0234   -1.7792 C   0  0  0  0  0  0  0  0  0  0  0  0
   15.7375   -7.4937   -1.4606 C   0  0  0  0  0  0  0  0  0  0  0  0
   15.9667   -8.5494   -1.5853 H   0  0  0  0  0  0  0  0  0  0  0  0
   16.6992   -6.6403   -0.9277 C   0  0  0  0  0  0  0  0  0  0  0  0
   17.6669   -7.0310   -0.6345 H   0  0  0  0  0  0  0  0  0  0  0  0
   16.3942   -5.2943   -0.7190 C   0  0  0  0  0  0  0  0  0  0  0  0
   17.1293   -4.6430   -0.2524 H   0  0  0  0  0  0  0  0  0  0  0  0
   15.1301   -4.7856   -1.0597 C   0  0  0  0  0  0  0  0  0  0  0  0
   14.7904   -3.3293   -0.7664 C   0  0  0  0  0  0  0  0  0  0  0  0
   15.3598   -2.3283   -1.7659 C   0  0  0  0  0  0  0  0  0  0  0  0
   15.9213   -2.7201   -2.9954 C   0  0  0  0  0  0  0  0  0  0  0  0
   15.9789   -3.7727   -3.2559 H   0  0  0  0  0  0  0  0  0  0  0  0
   16.4094   -1.7617   -3.8962 C   0  0  0  0  0  0  0  0  0  0  0  0
   16.8415   -2.0634   -4.8446 H   0  0  0  0  0  0  0  0  0  0  0  0
   16.3404   -0.4007   -3.5825 C   0  0  0  0  0  0  0  0  0  0  0  0
   16.7180    0.3429   -4.2795 H   0  0  0  0  0  0  0  0  0  0  0  0
   15.7838    0.0041   -2.3672 C   0  0  0  0  0  0  0  0  0  0  0  0
   15.7270    1.0598   -2.1149 H   0  0  0  0  0  0  0  0  0  0  0  0
   15.2948   -0.9527   -1.4718 C   0  0  0  0  0  0  0  0  0  0  0  0
   14.8600   -0.6252   -0.5316 H   0  0  0  0  0  0  0  0  0  0  0  0
   13.2762   -3.0896   -0.5763 C   0  0  0  0  0  0  0  0  0  0  0  0
   12.3883   -3.2215   -1.4141 O   0  0  0  0  0  0  0  0  0  0  0  0
   13.0391   -2.6889    0.7260 N   0  0  0  0  0  0  0  0  0  0  0  0
   11.7500   -2.3033    1.2984 C   0  0  0  0  0  0  0  0  0  0  0  0
   11.7557   -1.2421    1.5755 H   0  0  0  0  0  0  0  0  0  0  0  0
   10.9374   -2.4654    0.5796 H   0  0  0  0  0  0  0  0  0  0  0  0
   11.5360   -2.8998    2.1934 H   0  0  0  0  0  0  0  0  0  0  0  0
   14.2585   -2.6323    1.3622 C   0  0  0  0  0  0  0  0  0  0  0  0
   14.4618   -2.2334    2.6486 N   0  0  0  0  0  0  0  0  0  0  0  0
   15.3940   -2.3363    3.0483 H   0  0  0  0  0  0  0  0  0  0  0  0
   13.6548   -2.1084    3.2575 H   0  0  0  0  0  0  0  0  0  0  0  0
   15.2375   -2.9974    0.6013 N   0  0  0  0  0  4  0  0  0  0  0  0
   16.2105   -3.0470    0.9085 H   0  0  0  0  0  0  0  0  0  0  0  0
   14.1681   -5.6582   -1.5992 C   0  0  0  0  0  0  0  0  0  0  0  0
   13.1813   -5.2778   -1.8495 H   0  0  0  0  0  0  0  0  0  0  0  0
   12.0869   -7.7551   -1.9122 C   0  0  0  0  0  0  0  0  0  0  0  0
   11.8185   -6.8265   -1.4185 H   0  0  0  0  0  0  0  0  0  0  0  0
   11.1261   -8.7309   -2.2019 C   0  0  0  0  0  0  0  0  0  0  0  0
   10.0791   -8.5619   -1.9505 H   0  0  0  0  0  0  0  0  0  0  0  0
   11.5483   -9.9254   -2.8032 C   0  0  0  0  0  0  0  0  0  0  0  0
   10.5467  -11.0209   -3.1540 C   0  0  0  0  0  0  0  0  0  0  0  0
   10.2303  -11.5883   -2.2710 H   0  0  0  0  0  0  0  0  0  0  0  0
   11.0001  -11.7283   -3.8555 H   0  0  0  0  0  0  0  0  0  0  0  0
    9.6486  -10.5946   -3.6218 H   0  0  0  0  0  0  0  0  0  0  0  0
  1  2  1  0
  2  3  2  0
  3  4  1  0
  4  5  1  0
  5  6  2  0
  6  7  1  0
  6  8  1  0
  8  9  1  0
  8 10  2  0
 10 11  1  0
 10 12  1  0
 12 13  1  0
 13 14  1  0
 14 15  2  0
 15 16  1  0
 15 17  1  0
 17 18  1  0
 17 19  2  0
 19 20  1  0
 19 21  1  0
 21 22  1  0
 21 23  2  0
 23 24  1  0
 13 25  1  0
 25 26  2  0
 25 27  1  0
 27 28  1  0
 28 29  1  0
 28 30  1  0
 28 31  1  0
 27 32  1  0
 32 33  1  0
 33 34  1  0
 33 35  1  0
 32 36  2  0
 36 37  1  0
 12 38  2  0
 38 39  1  0
  4 40  2  0
 40 41  1  0
 40 42  1  0
 42 43  1  0
 42 44  2  0
 44 45  1  0
 45 46  1  0
 45 47  1  0
 45 48  1  0
 44  2  1  0
 38  5  1  0
 36 13  1  0
 23 14  1  0
M  CHG  1  36   1
M  END
>  <score>  (386) 
5.16208

$$$$

     RDKit          3D

 48 51  0  0  0  0  0  0  0  0999 V2000
    7.9414   -7.1353   -1.7385 H   0  0  0  0  0  0  0  0  0  0  0  0
    9.0044   -7.3576   -1.7839 C   0  0  0  0  0  0  0  0  0  0  0  0
    9.4552   -8.3870   -2.6105 C   0  0  0  0  0  0  0  0  0  0  0  0
    8.7343   -8.9757   -3.1653 H   0  0  0  0  0  0  0  0  0  0  0  0
   10.8232   -8.6521   -2.7235 C   0  0  0  0  0  0  0  0  0  0  0  0
   11.1469   -9.4087   -3.4402 H   0  0  0  0  0  0  0  0  0  0  0  0
   11.7679   -7.8946   -1.9969 C   0  0  0  0  0  0  0  0  0  0  0  0
   13.2206   -8.1186   -2.1747 C   0  0  0  0  0  0  0  0  0  0  0  0
   13.5892   -9.1410   -2.7567 O   0  0  0  0  0  0  0  0  0  0  0  0
   14.2533   -7.1545   -1.7186 C   0  0  0  0  0  0  0  0  0  0  0  0
   15.5445   -7.6295   -1.4263 C   0  0  0  0  0  0  0  0  0  0  0  0
   15.7738   -8.6850   -1.5468 H   0  0  0  0  0  0  0  0  0  0  0  0
   16.5361   -6.7669   -0.9565 C   0  0  0  0  0  0  0  0  0  0  0  0
   17.5225   -7.1584   -0.7249 H   0  0  0  0  0  0  0  0  0  0  0  0
   16.2583   -5.4103   -0.7749 C   0  0  0  0  0  0  0  0  0  0  0  0
   17.0367   -4.7575   -0.3870 H   0  0  0  0  0  0  0  0  0  0  0  0
   14.9867   -4.8913   -1.0657 C   0  0  0  0  0  0  0  0  0  0  0  0
   14.6945   -3.4162   -0.7827 C   0  0  0  0  0  0  0  0  0  0  0  0
   15.2927   -2.4193   -1.7739 C   0  0  0  0  0  0  0  0  0  0  0  0
   15.8680   -2.8030   -3.0004 C   0  0  0  0  0  0  0  0  0  0  0  0
   15.9151   -3.8531   -3.2743 H   0  0  0  0  0  0  0  0  0  0  0  0
   16.3862   -1.8364   -3.8771 C   0  0  0  0  0  0  0  0  0  0  0  0
   16.8344   -2.1300   -4.8207 H   0  0  0  0  0  0  0  0  0  0  0  0
   16.3324   -0.4794   -3.5446 C   0  0  0  0  0  0  0  0  0  0  0  0
   16.7352    0.2678   -4.2221 H   0  0  0  0  0  0  0  0  0  0  0  0
   15.7568   -0.0846   -2.3360 C   0  0  0  0  0  0  0  0  0  0  0  0
   15.7122    0.9671   -2.0683 H   0  0  0  0  0  0  0  0  0  0  0  0
   15.2392   -1.0465   -1.4652 C   0  0  0  0  0  0  0  0  0  0  0  0
   14.7936   -0.7246   -0.5276 H   0  0  0  0  0  0  0  0  0  0  0  0
   13.1943   -3.1200   -0.5693 C   0  0  0  0  0  0  0  0  0  0  0  0
   12.2940   -3.2142   -1.4038 O   0  0  0  0  0  0  0  0  0  0  0  0
   12.9896   -2.6932    0.7279 N   0  0  0  0  0  0  0  0  0  0  0  0
   11.7245   -2.2745    1.3328 C   0  0  0  0  0  0  0  0  0  0  0  0
   10.8869   -2.4226    0.6413 H   0  0  0  0  0  0  0  0  0  0  0  0
   11.7594   -1.2136    1.6046 H   0  0  0  0  0  0  0  0  0  0  0  0
   11.5221   -2.8580    2.2378 H   0  0  0  0  0  0  0  0  0  0  0  0
   14.2226   -2.6742    1.3427 C   0  0  0  0  0  0  0  0  0  0  0  0
   14.4767   -2.2505    2.6143 N   0  0  0  0  0  0  0  0  0  0  0  0
   13.6939   -2.0836    3.2419 H   0  0  0  0  0  0  0  0  0  0  0  0
   15.4116   -2.3924    2.9919 H   0  0  0  0  0  0  0  0  0  0  0  0
   15.1699   -3.0967    0.5797 N   0  0  0  0  0  4  0  0  0  0  0  0
   16.1550   -3.1211    0.8543 H   0  0  0  0  0  0  0  0  0  0  0  0
   13.9941   -5.7745   -1.5502 C   0  0  0  0  0  0  0  0  0  0  0  0
   13.0097   -5.3722   -1.7761 H   0  0  0  0  0  0  0  0  0  0  0  0
   11.2886   -6.9128   -1.1158 C   0  0  0  0  0  0  0  0  0  0  0  0
   11.9753   -6.3777   -0.4715 H   0  0  0  0  0  0  0  0  0  0  0  0
    9.9235   -6.6237   -1.0311 C   0  0  0  0  0  0  0  0  0  0  0  0
    9.5871   -5.8393   -0.3644 H   0  0  0  0  0  0  0  0  0  0  0  0
  1  2  1  0
  2  3  2  0
  3  4  1  0
  3  5  1  0
  5  6  1  0
  5  7  2  0
  7  8  1  0
  8  9  2  0
  8 10  1  0
 10 11  2  0
 11 12  1  0
 11 13  1  0
 13 14  1  0
 13 15  2  0
 15 16  1  0
 15 17  1  0
 17 18  1  0
 18 19  1  0
 19 20  2  0
 20 21  1  0
 20 22  1  0
 22 23  1  0
 22 24  2  0
 24 25  1  0
 24 26  1  0
 26 27  1  0
 26 28  2  0
 28 29  1  0
 18 30  1  0
 30 31  2  0
 30 32  1  0
 32 33  1  0
 33 34  1  0
 33 35  1  0
 33 36  1  0
 32 37  1  0
 37 38  1  0
 38 39  1  0
 38 40  1  0
 37 41  2  0
 41 42  1  0
 17 43  2  0
 43 44  1  0
  7 45  1  0
 45 46  1  0
 45 47  2  0
 47 48  1  0
 47  2  1  0
 43 10  1  0
 41 18  1  0
 28 19  1  0
M  CHG  1  41   1
M  END
>  <score>  (387) 
5.1569

$$$$

     RDKit          3D

 57 60  0  0  0  0  0  0  0  0999 V2000
   16.0779   -8.3133   -1.6600 H   0  0  0  0  0  0  0  0  0  0  0  0
   15.8630   -7.2612   -1.4949 C   0  0  0  0  0  0  0  0  0  0  0  0
   16.7776   -6.4546   -0.8098 C   0  0  0  0  0  0  0  0  0  0  0  0
   17.7099   -6.8770   -0.4467 H   0  0  0  0  0  0  0  0  0  0  0  0
   16.4877   -5.1039   -0.5787 C   0  0  0  0  0  0  0  0  0  0  0  0
   17.2030   -4.4893   -0.0397 H   0  0  0  0  0  0  0  0  0  0  0  0
   15.2772   -4.5420   -1.0181 C   0  0  0  0  0  0  0  0  0  0  0  0
   14.9254   -3.0853   -0.7224 C   0  0  0  0  0  0  0  0  0  0  0  0
   15.4185   -2.1110   -1.7869 C   0  0  0  0  0  0  0  0  0  0  0  0
   15.9974   -2.5538   -2.9902 C   0  0  0  0  0  0  0  0  0  0  0  0
   16.1370   -3.6172   -3.1552 H   0  0  0  0  0  0  0  0  0  0  0  0
   16.3904   -1.6468   -3.9832 C   0  0  0  0  0  0  0  0  0  0  0  0
   16.8634   -2.0001   -4.8945 H   0  0  0  0  0  0  0  0  0  0  0  0
   16.1627   -0.2793   -3.7999 C   0  0  0  0  0  0  0  0  0  0  0  0
   16.4410    0.4436   -4.5575 H   0  0  0  0  0  0  0  0  0  0  0  0
   15.5782    0.1753   -2.6192 C   0  0  0  0  0  0  0  0  0  0  0  0
   15.3382    1.5213   -2.3941 N   0  0  0  0  0  0  0  0  0  0  0  0
   15.0357    1.7793   -1.4535 H   0  0  0  0  0  0  0  0  0  0  0  0
   15.2411    2.5166   -3.4842 C   0  0  0  0  0  0  0  0  0  0  0  0
   16.0448    2.3461   -4.2089 H   0  0  0  0  0  0  0  0  0  0  0  0
   15.3784    3.5234   -3.0768 H   0  0  0  0  0  0  0  0  0  0  0  0
   13.8900    2.4512   -4.2151 C   0  0  0  0  0  0  0  0  0  0  0  0
   13.8716    1.5431   -4.8314 H   0  0  0  0  0  0  0  0  0  0  0  0
   13.0828    2.3544   -3.4795 H   0  0  0  0  0  0  0  0  0  0  0  0
   13.6708    3.6557   -5.0626 N   0  0  0  0  0  0  0  0  0  0  0  0
   13.7010    3.3738   -6.5106 C   0  0  0  0  0  0  0  0  0  0  0  0
   12.8653    2.7073   -6.7469 H   0  0  0  0  0  0  0  0  0  0  0  0
   14.6291    2.8601   -6.7899 H   0  0  0  0  0  0  0  0  0  0  0  0
   13.5660    4.6827   -7.3023 C   0  0  0  0  0  0  0  0  0  0  0  0
   14.4205    5.3349   -7.0879 H   0  0  0  0  0  0  0  0  0  0  0  0
   13.5715    4.4632   -8.3725 H   0  0  0  0  0  0  0  0  0  0  0  0
   12.3416    5.3555   -6.9567 O   0  0  0  0  0  0  0  0  0  0  0  0
   12.3335    5.7486   -5.5731 C   0  0  0  0  0  0  0  0  0  0  0  0
   11.3762    6.2209   -5.3290 H   0  0  0  0  0  0  0  0  0  0  0  0
   13.1086    6.5041   -5.4044 H   0  0  0  0  0  0  0  0  0  0  0  0
   12.5408    4.5295   -4.6480 C   0  0  0  0  0  0  0  0  0  0  0  0
   12.7202    4.8891   -3.6313 H   0  0  0  0  0  0  0  0  0  0  0  0
   11.6101    3.9486   -4.6388 H   0  0  0  0  0  0  0  0  0  0  0  0
   15.2199   -0.7267   -1.6254 C   0  0  0  0  0  0  0  0  0  0  0  0
   14.7641   -0.3201   -0.7295 H   0  0  0  0  0  0  0  0  0  0  0  0
   13.4094   -2.8936   -0.5462 C   0  0  0  0  0  0  0  0  0  0  0  0
   12.5367   -3.0711   -1.3940 O   0  0  0  0  0  0  0  0  0  0  0  0
   13.1350   -2.5153    0.7522 N   0  0  0  0  0  0  0  0  0  0  0  0
   11.8090   -2.2670    1.3199 C   0  0  0  0  0  0  0  0  0  0  0  0
   11.0251   -2.4811    0.5838 H   0  0  0  0  0  0  0  0  0  0  0  0
   11.6335   -2.9030    2.1953 H   0  0  0  0  0  0  0  0  0  0  0  0
   11.7103   -1.2184    1.6229 H   0  0  0  0  0  0  0  0  0  0  0  0
   14.3359   -2.4906    1.4235 C   0  0  0  0  0  0  0  0  0  0  0  0
   14.4805   -2.3057    2.7692 N   0  0  0  0  0  0  0  0  0  0  0  0
   13.6655   -2.0693    3.3327 H   0  0  0  0  0  0  0  0  0  0  0  0
   15.4163   -2.2288    3.1598 H   0  0  0  0  0  0  0  0  0  0  0  0
   15.3489   -2.7179    0.6508 N   0  0  0  0  0  4  0  0  0  0  0  0
   16.2943   -2.8701    1.0056 H   0  0  0  0  0  0  0  0  0  0  0  0
   14.3808   -5.3598   -1.7315 C   0  0  0  0  0  0  0  0  0  0  0  0
   13.4461   -4.9478   -2.0992 H   0  0  0  0  0  0  0  0  0  0  0  0
   14.6669   -6.7103   -1.9625 C   0  0  0  0  0  0  0  0  0  0  0  0
   13.9544   -7.3316   -2.4971 H   0  0  0  0  0  0  0  0  0  0  0  0
  1  2  1  0
  2  3  2  0
  3  4  1  0
  3  5  1  0
  5  6  1  0
  5  7  2  0
  7  8  1  0
  8  9  1  0
  9 10  2  0
 10 11  1  0
 10 12  1  0
 12 13  1  0
 12 14  2  0
 14 15  1  0
 14 16  1  0
 16 17  1  0
 17 18  1  0
 17 19  1  0
 19 20  1  0
 19 21  1  0
 19 22  1  0
 22 23  1  0
 22 24  1  0
 22 25  1  0
 25 26  1  0
 26 27  1  0
 26 28  1  0
 26 29  1  0
 29 30  1  0
 29 31  1  0
 29 32  1  0
 32 33  1  0
 33 34  1  0
 33 35  1  0
 33 36  1  0
 36 37  1  0
 36 38  1  0
 16 39  2  0
 39 40  1  0
  8 41  1  0
 41 42  2  0
 41 43  1  0
 43 44  1  0
 44 45  1  0
 44 46  1  0
 44 47  1  0
 43 48  1  0
 48 49  1  0
 49 50  1  0
 49 51  1  0
 48 52  2  0
 52 53  1  0
  7 54  1  0
 54 55  1  0
 54 56  2  0
 56 57  1  0
 56  2  1  0
 52  8  1  0
 39  9  1  0
 36 25  1  0
M  CHG  1  52   1
M  END
>  <score>  (388) 
5.15617

$$$$

     RDKit          3D

 51 54  0  0  0  0  0  0  0  0999 V2000
    7.9745   -8.0998   -1.0921 H   0  0  0  0  0  0  0  0  0  0  0  0
    9.0389   -8.0108   -1.2840 C   0  0  0  0  0  0  0  0  0  0  0  0
    9.5663   -8.6784   -2.3838 C   0  0  0  0  0  0  0  0  0  0  0  0
    8.9173   -9.2350   -3.0574 H   0  0  0  0  0  0  0  0  0  0  0  0
   10.9412   -8.6742   -2.5958 C   0  0  0  0  0  0  0  0  0  0  0  0
   11.3392   -9.2622   -3.4103 H   0  0  0  0  0  0  0  0  0  0  0  0
   11.8274   -7.9183   -1.8101 C   0  0  0  0  0  0  0  0  0  0  0  0
   13.2144   -7.9387   -2.1003 N   0  0  0  0  0  0  0  0  0  0  0  0
   14.1792   -7.0675   -1.5500 C   0  0  0  0  0  0  0  0  0  0  0  0
   15.4497   -7.5752   -1.2296 C   0  0  0  0  0  0  0  0  0  0  0  0
   15.6293   -8.6417   -1.3311 H   0  0  0  0  0  0  0  0  0  0  0  0
   16.4713   -6.7325   -0.7742 C   0  0  0  0  0  0  0  0  0  0  0  0
   17.4459   -7.1296   -0.4958 H   0  0  0  0  0  0  0  0  0  0  0  0
   16.2250   -5.3647   -0.6389 C   0  0  0  0  0  0  0  0  0  0  0  0
   17.0224   -4.7225   -0.2744 H   0  0  0  0  0  0  0  0  0  0  0  0
   14.9715   -4.8185   -0.9477 C   0  0  0  0  0  0  0  0  0  0  0  0
   14.7002   -3.3417   -0.7085 C   0  0  0  0  0  0  0  0  0  0  0  0
   15.2869   -2.3838   -1.7371 C   0  0  0  0  0  0  0  0  0  0  0  0
   15.8479   -2.7987   -2.9589 C   0  0  0  0  0  0  0  0  0  0  0  0
   15.8802   -3.8568   -3.2044 H   0  0  0  0  0  0  0  0  0  0  0  0
   16.3752   -1.8533   -3.8548 C   0  0  0  0  0  0  0  0  0  0  0  0
   16.8182   -2.1779   -4.7905 H   0  0  0  0  0  0  0  0  0  0  0  0
   16.3395   -0.4887   -3.5451 C   0  0  0  0  0  0  0  0  0  0  0  0
   16.7578    0.2361   -4.2389 H   0  0  0  0  0  0  0  0  0  0  0  0
   15.7644   -0.0676   -2.3448 C   0  0  0  0  0  0  0  0  0  0  0  0
   15.7344    0.9896   -2.0989 H   0  0  0  0  0  0  0  0  0  0  0  0
   15.2370   -1.0078   -1.4584 C   0  0  0  0  0  0  0  0  0  0  0  0
   14.7956   -0.6611   -0.5289 H   0  0  0  0  0  0  0  0  0  0  0  0
   13.1993   -3.0647   -0.5109 C   0  0  0  0  0  0  0  0  0  0  0  0
   12.3060   -3.1832   -1.3485 O   0  0  0  0  0  0  0  0  0  0  0  0
   12.9801   -2.6240    0.7789 N   0  0  0  0  0  0  0  0  0  0  0  0
   11.7039   -2.2438    1.3856 C   0  0  0  0  0  0  0  0  0  0  0  0
   11.7095   -1.1846    1.6624 H   0  0  0  0  0  0  0  0  0  0  0  0
   10.8698   -2.4080    0.6958 H   0  0  0  0  0  0  0  0  0  0  0  0
   11.5139   -2.8363    2.2871 H   0  0  0  0  0  0  0  0  0  0  0  0
   14.2085   -2.5734    1.3984 C   0  0  0  0  0  0  0  0  0  0  0  0
   14.4688   -2.1722    2.6709 N   0  0  0  0  0  0  0  0  0  0  0  0
   13.6884   -2.0681    3.3137 H   0  0  0  0  0  0  0  0  0  0  0  0
   15.4008   -2.3544    3.0401 H   0  0  0  0  0  0  0  0  0  0  0  0
   15.1697   -2.9775    0.6433 N   0  0  0  0  0  4  0  0  0  0  0  0
   16.1415   -3.0568    0.9475 H   0  0  0  0  0  0  0  0  0  0  0  0
   13.9619   -5.6866   -1.4165 C   0  0  0  0  0  0  0  0  0  0  0  0
   12.9878   -5.2932   -1.6716 H   0  0  0  0  0  0  0  0  0  0  0  0
   13.7216   -8.8082   -3.1853 C   0  0  0  0  0  0  0  0  0  0  0  0
   14.2730   -9.6574   -2.7647 H   0  0  0  0  0  0  0  0  0  0  0  0
   12.9354   -9.2185   -3.8240 H   0  0  0  0  0  0  0  0  0  0  0  0
   14.3726   -8.2056   -3.8328 H   0  0  0  0  0  0  0  0  0  0  0  0
   11.2739   -7.2105   -0.7291 C   0  0  0  0  0  0  0  0  0  0  0  0
   11.9337   -6.6396   -0.0897 H   0  0  0  0  0  0  0  0  0  0  0  0
    9.8910   -7.2759   -0.4469 C   0  0  0  0  0  0  0  0  0  0  0  0
    9.4747   -6.7644    0.4182 H   0  0  0  0  0  0  0  0  0  0  0  0
  1  2  1  0
  2  3  2  0
  3  4  1  0
  3  5  1  0
  5  6  1  0
  5  7  2  0
  7  8  1  0
  8  9  1  0
  9 10  2  0
 10 11  1  0
 10 12  1  0
 12 13  1  0
 12 14  2  0
 14 15  1  0
 14 16  1  0
 16 17  1  0
 17 18  1  0
 18 19  2  0
 19 20  1  0
 19 21  1  0
 21 22  1  0
 21 23  2  0
 23 24  1  0
 23 25  1  0
 25 26  1  0
 25 27  2  0
 27 28  1  0
 17 29  1  0
 29 30  2  0
 29 31  1  0
 31 32  1  0
 32 33  1  0
 32 34  1  0
 32 35  1  0
 31 36  1  0
 36 37  1  0
 37 38  1  0
 37 39  1  0
 36 40  2  0
 40 41  1  0
 16 42  2  0
 42 43  1  0
  8 44  1  0
 44 45  1  0
 44 46  1  0
 44 47  1  0
  7 48  1  0
 48 49  1  0
 48 50  2  0
 50 51  1  0
 50  2  1  0
 42  9  1  0
 40 17  1  0
 27 18  1  0
M  CHG  1  40   1
M  END
>  <score>  (389) 
5.15405

$$$$

     RDKit          3D

 42 44  0  0  0  0  0  0  0  0999 V2000
   16.1213   -8.4861   -1.6112 H   0  0  0  0  0  0  0  0  0  0  0  0
   15.8538   -7.4407   -1.4726 C   0  0  0  0  0  0  0  0  0  0  0  0
   16.7293   -6.5825   -0.8026 C   0  0  0  0  0  0  0  0  0  0  0  0
   17.6724   -6.9561   -0.4166 H   0  0  0  0  0  0  0  0  0  0  0  0
   16.3918   -5.2376   -0.6112 C   0  0  0  0  0  0  0  0  0  0  0  0
   17.0674   -4.5877   -0.0638 H   0  0  0  0  0  0  0  0  0  0  0  0
   15.1745   -4.7125   -1.0770 C   0  0  0  0  0  0  0  0  0  0  0  0
   14.8145   -3.2460   -0.7883 C   0  0  0  0  0  0  0  0  0  0  0  0
   15.3896   -2.2327   -1.7811 C   0  0  0  0  0  0  0  0  0  0  0  0
   15.9435   -2.6326   -3.0062 C   0  0  0  0  0  0  0  0  0  0  0  0
   16.0021   -3.6893   -3.2555 H   0  0  0  0  0  0  0  0  0  0  0  0
   16.4189   -1.6771   -3.9124 C   0  0  0  0  0  0  0  0  0  0  0  0
   16.8508   -1.9973   -4.8524 H   0  0  0  0  0  0  0  0  0  0  0  0
   16.3451   -0.3117   -3.6201 C   0  0  0  0  0  0  0  0  0  0  0  0
   16.7167    0.3969   -4.3584 H   0  0  0  0  0  0  0  0  0  0  0  0
   15.7935    0.1250   -2.4006 C   0  0  0  0  0  0  0  0  0  0  0  0
   15.7020    1.5711   -2.0607 C   0  0  0  0  0  0  0  0  0  0  0  0
   16.1078    2.3881   -2.8821 O   0  0  0  0  0  0  0  0  0  0  0  0
   15.1524    1.8929   -0.8520 O   0  0  0  0  0  0  0  0  0  0  0  0
   15.0599    3.2962   -0.5179 C   0  0  0  0  0  0  0  0  0  0  0  0
   14.6091    3.4052    0.4698 H   0  0  0  0  0  0  0  0  0  0  0  0
   14.4333    3.8539   -1.2185 H   0  0  0  0  0  0  0  0  0  0  0  0
   16.0367    3.7851   -0.4798 H   0  0  0  0  0  0  0  0  0  0  0  0
   15.3218   -0.8537   -1.5006 C   0  0  0  0  0  0  0  0  0  0  0  0
   14.8906   -0.5481   -0.5515 H   0  0  0  0  0  0  0  0  0  0  0  0
   13.2993   -3.0322   -0.6023 C   0  0  0  0  0  0  0  0  0  0  0  0
   12.4299   -3.0885   -1.4700 O   0  0  0  0  0  0  0  0  0  0  0  0
   13.0241   -2.6768    0.7039 N   0  0  0  0  0  0  0  0  0  0  0  0
   11.7185   -2.3132    1.2636 C   0  0  0  0  0  0  0  0  0  0  0  0
   10.9125   -2.4742    0.5417 H   0  0  0  0  0  0  0  0  0  0  0  0
   11.6947   -1.2606    1.5596 H   0  0  0  0  0  0  0  0  0  0  0  0
   11.5024   -2.9172    2.1482 H   0  0  0  0  0  0  0  0  0  0  0  0
   14.2257   -2.6280    1.3637 C   0  0  0  0  0  0  0  0  0  0  0  0
   14.3963   -2.3322    2.6853 N   0  0  0  0  0  0  0  0  0  0  0  0
   13.5820   -2.1267    3.2615 H   0  0  0  0  0  0  0  0  0  0  0  0
   15.3318   -2.3531    3.0911 H   0  0  0  0  0  0  0  0  0  0  0  0
   15.2206   -2.9001    0.5894 N   0  0  0  0  0  4  0  0  0  0  0  0
   16.1891   -2.9126    0.9040 H   0  0  0  0  0  0  0  0  0  0  0  0
   14.3041   -5.5875   -1.7681 C   0  0  0  0  0  0  0  0  0  0  0  0
   13.3534   -5.2333   -2.1568 H   0  0  0  0  0  0  0  0  0  0  0  0
   14.6430   -6.9392   -1.9617 C   0  0  0  0  0  0  0  0  0  0  0  0
   13.9723   -7.6127   -2.4877 H   0  0  0  0  0  0  0  0  0  0  0  0
  1  2  1  0
  2  3  2  0
  3  4  1  0
  3  5  1  0
  5  6  1  0
  5  7  2  0
  7  8  1  0
  8  9  1  0
  9 10  2  0
 10 11  1  0
 10 12  1  0
 12 13  1  0
 12 14  2  0
 14 15  1  0
 14 16  1  0
 16 17  1  0
 17 18  2  0
 17 19  1  0
 19 20  1  0
 20 21  1  0
 20 22  1  0
 20 23  1  0
 16 24  2  0
 24 25  1  0
  8 26  1  0
 26 27  2  0
 26 28  1  0
 28 29  1  0
 29 30  1  0
 29 31  1  0
 29 32  1  0
 28 33  1  0
 33 34  1  0
 34 35  1  0
 34 36  1  0
 33 37  2  0
 37 38  1  0
  7 39  1  0
 39 40  1  0
 39 41  2  0
 41 42  1  0
 41  2  1  0
 37  8  1  0
 24  9  1  0
M  CHG  1  37   1
M  END
>  <score>  (390) 
5.15278

$$$$

     RDKit          3D

 47 50  0  0  0  0  0  0  0  0999 V2000
    9.8827   -6.1280   -0.7509 H   0  0  0  0  0  0  0  0  0  0  0  0
   10.3589   -6.9229   -1.3146 C   0  0  0  0  0  0  0  0  0  0  0  0
   11.6896   -6.8995   -1.4427 N   0  0  0  0  0  0  0  0  0  0  0  0
   12.2672   -7.9282   -2.0628 C   0  0  0  0  0  0  0  0  0  0  0  0
   13.6201   -7.9417   -2.2948 N   0  0  0  0  0  0  0  0  0  0  0  0
   14.0167   -8.7999   -2.6499 H   0  0  0  0  0  0  0  0  0  0  0  0
   14.5005   -7.0151   -1.7742 C   0  0  0  0  0  0  0  0  0  0  0  0
   15.7613   -7.4889   -1.4479 C   0  0  0  0  0  0  0  0  0  0  0  0
   15.9708   -8.5411   -1.6024 H   0  0  0  0  0  0  0  0  0  0  0  0
   16.7111   -6.6313   -0.8940 C   0  0  0  0  0  0  0  0  0  0  0  0
   17.6894   -7.0068   -0.6105 H   0  0  0  0  0  0  0  0  0  0  0  0
   16.3877   -5.2871   -0.6873 C   0  0  0  0  0  0  0  0  0  0  0  0
   17.1152   -4.6212   -0.2371 H   0  0  0  0  0  0  0  0  0  0  0  0
   15.1210   -4.7791   -1.0214 C   0  0  0  0  0  0  0  0  0  0  0  0
   14.7893   -3.3136   -0.7432 C   0  0  0  0  0  0  0  0  0  0  0  0
   15.3593   -2.3108   -1.7489 C   0  0  0  0  0  0  0  0  0  0  0  0
   15.9178   -2.7059   -2.9787 C   0  0  0  0  0  0  0  0  0  0  0  0
   15.9729   -3.7578   -3.2366 H   0  0  0  0  0  0  0  0  0  0  0  0
   16.4080   -1.7562   -3.8886 C   0  0  0  0  0  0  0  0  0  0  0  0
   16.8356   -2.0679   -4.8362 H   0  0  0  0  0  0  0  0  0  0  0  0
   16.3454   -0.3933   -3.5867 C   0  0  0  0  0  0  0  0  0  0  0  0
   16.7213    0.3451   -4.2912 H   0  0  0  0  0  0  0  0  0  0  0  0
   15.7897    0.0175   -2.3727 C   0  0  0  0  0  0  0  0  0  0  0  0
   15.7351    1.0748   -2.1300 H   0  0  0  0  0  0  0  0  0  0  0  0
   15.2978   -0.9313   -1.4676 C   0  0  0  0  0  0  0  0  0  0  0  0
   14.8657   -0.5900   -0.5304 H   0  0  0  0  0  0  0  0  0  0  0  0
   13.2761   -3.0883   -0.5580 C   0  0  0  0  0  0  0  0  0  0  0  0
   12.3911   -3.1964   -1.4049 O   0  0  0  0  0  0  0  0  0  0  0  0
   13.0369   -2.6795    0.7401 N   0  0  0  0  0  0  0  0  0  0  0  0
   11.7434   -2.3029    1.3051 C   0  0  0  0  0  0  0  0  0  0  0  0
   11.5301   -2.9012    2.1989 H   0  0  0  0  0  0  0  0  0  0  0  0
   11.7374   -1.2407    1.5773 H   0  0  0  0  0  0  0  0  0  0  0  0
   10.9384   -2.4735    0.5804 H   0  0  0  0  0  0  0  0  0  0  0  0
   14.2537   -2.6058    1.3809 C   0  0  0  0  0  0  0  0  0  0  0  0
   14.4567   -2.2062    2.6681 N   0  0  0  0  0  0  0  0  0  0  0  0
   15.3881   -2.3193    3.0659 H   0  0  0  0  0  0  0  0  0  0  0  0
   13.6484   -2.1198    3.2825 H   0  0  0  0  0  0  0  0  0  0  0  0
   15.2359   -2.9609    0.6204 N   0  0  0  0  0  4  0  0  0  0  0  0
   16.2099   -3.0001    0.9235 H   0  0  0  0  0  0  0  0  0  0  0  0
   14.1701   -5.6718   -1.5640 C   0  0  0  0  0  0  0  0  0  0  0  0
   13.1662   -5.3492   -1.8226 H   0  0  0  0  0  0  0  0  0  0  0  0
   11.5550   -9.0249   -2.5435 C   0  0  0  0  0  0  0  0  0  0  0  0
   12.1163   -9.8474   -2.9600 H   0  0  0  0  0  0  0  0  0  0  0  0
   10.1657   -9.0211   -2.5029 C   0  0  0  0  0  0  0  0  0  0  0  0
    9.5722   -9.7987   -2.9828 H   0  0  0  0  0  0  0  0  0  0  0  0
    9.5691   -7.9427   -1.8625 C   0  0  0  0  0  0  0  0  0  0  0  0
    8.4907   -7.9000   -1.7849 H   0  0  0  0  0  0  0  0  0  0  0  0
  1  2  1  0
  2  3  2  0
  3  4  1  0
  4  5  1  0
  5  6  1  0
  5  7  1  0
  7  8  2  0
  8  9  1  0
  8 10  1  0
 10 11  1  0
 10 12  2  0
 12 13  1  0
 12 14  1  0
 14 15  1  0
 15 16  1  0
 16 17  2  0
 17 18  1  0
 17 19  1  0
 19 20  1  0
 19 21  2  0
 21 22  1  0
 21 23  1  0
 23 24  1  0
 23 25  2  0
 25 26  1  0
 15 27  1  0
 27 28  2  0
 27 29  1  0
 29 30  1  0
 30 31  1  0
 30 32  1  0
 30 33  1  0
 29 34  1  0
 34 35  1  0
 35 36  1  0
 35 37  1  0
 34 38  2  0
 38 39  1  0
 14 40  2  0
 40 41  1  0
  4 42  2  0
 42 43  1  0
 42 44  1  0
 44 45  1  0
 44 46  2  0
 46 47  1  0
 46  2  1  0
 40  7  1  0
 38 15  1  0
 25 16  1  0
M  CHG  1  38   1
M  END
>  <score>  (391) 
5.15109

$$$$

     RDKit          3D

 47 49  0  0  0  0  0  0  0  0999 V2000
   16.0835   -8.3670   -1.6591 H   0  0  0  0  0  0  0  0  0  0  0  0
   15.8586   -7.3167   -1.4957 C   0  0  0  0  0  0  0  0  0  0  0  0
   16.7627   -6.4999   -0.8088 C   0  0  0  0  0  0  0  0  0  0  0  0
   17.6941   -6.9174   -0.4373 H   0  0  0  0  0  0  0  0  0  0  0  0
   16.4643   -5.1487   -0.5856 C   0  0  0  0  0  0  0  0  0  0  0  0
   17.1711   -4.5288   -0.0409 H   0  0  0  0  0  0  0  0  0  0  0  0
   15.2515   -4.5937   -1.0344 C   0  0  0  0  0  0  0  0  0  0  0  0
   14.8687   -3.1404   -0.7351 C   0  0  0  0  0  0  0  0  0  0  0  0
   15.3359   -2.1203   -1.7835 C   0  0  0  0  0  0  0  0  0  0  0  0
   15.9837   -2.5605   -2.9427 C   0  0  0  0  0  0  0  0  0  0  0  0
   16.1616   -3.6212   -3.0745 H   0  0  0  0  0  0  0  0  0  0  0  0
   16.3949   -1.6606   -3.9296 C   0  0  0  0  0  0  0  0  0  0  0  0
   16.9061   -2.0251   -4.8137 H   0  0  0  0  0  0  0  0  0  0  0  0
   16.1391   -0.2955   -3.7900 C   0  0  0  0  0  0  0  0  0  0  0  0
   16.4560    0.3846   -4.5767 H   0  0  0  0  0  0  0  0  0  0  0  0
   15.4654    0.1990   -2.6636 C   0  0  0  0  0  0  0  0  0  0  0  0
   15.1679    1.7023   -2.5788 C   0  0  0  0  0  0  0  0  0  0  0  0
   14.9920    2.0938   -3.5885 H   0  0  0  0  0  0  0  0  0  0  0  0
   14.2476    1.8666   -2.0020 H   0  0  0  0  0  0  0  0  0  0  0  0
   16.3015    2.4573   -1.9869 N   0  0  0  0  0  0  0  0  0  0  0  0
   16.5799    2.1039   -0.5893 C   0  0  0  0  0  0  0  0  0  0  0  0
   15.8032    2.5208    0.0607 H   0  0  0  0  0  0  0  0  0  0  0  0
   16.6093    1.0111   -0.4767 H   0  0  0  0  0  0  0  0  0  0  0  0
   17.5343    2.5209   -0.2635 H   0  0  0  0  0  0  0  0  0  0  0  0
   16.4769    3.8932   -2.3257 C   0  0  0  0  0  0  0  0  0  0  0  0
   17.5368    4.1573   -2.2044 H   0  0  0  0  0  0  0  0  0  0  0  0
   15.8654    4.5496   -1.6868 H   0  0  0  0  0  0  0  0  0  0  0  0
   16.1956    4.0832   -3.3641 H   0  0  0  0  0  0  0  0  0  0  0  0
   15.0727   -0.7294   -1.6630 C   0  0  0  0  0  0  0  0  0  0  0  0
   14.5418   -0.3593   -0.7911 H   0  0  0  0  0  0  0  0  0  0  0  0
   13.3500   -3.0054   -0.5329 C   0  0  0  0  0  0  0  0  0  0  0  0
   12.4647   -3.2206   -1.3611 O   0  0  0  0  0  0  0  0  0  0  0  0
   13.0893   -2.6197    0.7626 N   0  0  0  0  0  0  0  0  0  0  0  0
   11.7768   -2.2948    1.3187 C   0  0  0  0  0  0  0  0  0  0  0  0
   10.9847   -2.4804    0.5843 H   0  0  0  0  0  0  0  0  0  0  0  0
   11.7325   -1.2377    1.6005 H   0  0  0  0  0  0  0  0  0  0  0  0
   11.5668   -2.9047    2.2036 H   0  0  0  0  0  0  0  0  0  0  0  0
   14.3018   -2.5202    1.4052 C   0  0  0  0  0  0  0  0  0  0  0  0
   14.4757   -2.2157    2.7236 N   0  0  0  0  0  0  0  0  0  0  0  0
   13.6611   -2.1172    3.3271 H   0  0  0  0  0  0  0  0  0  0  0  0
   15.4120   -2.2583    3.1192 H   0  0  0  0  0  0  0  0  0  0  0  0
   15.3038   -2.7715    0.6292 N   0  0  0  0  0  4  0  0  0  0  0  0
   16.2530   -2.9187    0.9771 H   0  0  0  0  0  0  0  0  0  0  0  0
   14.3629   -5.4278   -1.7389 C   0  0  0  0  0  0  0  0  0  0  0  0
   13.4188   -5.0306   -2.0973 H   0  0  0  0  0  0  0  0  0  0  0  0
   14.6591   -6.7761   -1.9652 C   0  0  0  0  0  0  0  0  0  0  0  0
   13.9515   -7.4055   -2.4967 H   0  0  0  0  0  0  0  0  0  0  0  0
  1  2  1  0
  2  3  2  0
  3  4  1  0
  3  5  1  0
  5  6  1  0
  5  7  2  0
  7  8  1  0
  8  9  1  0
  9 10  2  0
 10 11  1  0
 10 12  1  0
 12 13  1  0
 12 14  2  0
 14 15  1  0
 14 16  1  0
 16 17  1  0
 17 18  1  0
 17 19  1  0
 17 20  1  0
 20 21  1  0
 21 22  1  0
 21 23  1  0
 21 24  1  0
 20 25  1  0
 25 26  1  0
 25 27  1  0
 25 28  1  0
 16 29  2  0
 29 30  1  0
  8 31  1  0
 31 32  2  0
 31 33  1  0
 33 34  1  0
 34 35  1  0
 34 36  1  0
 34 37  1  0
 33 38  1  0
 38 39  1  0
 39 40  1  0
 39 41  1  0
 38 42  2  0
 42 43  1  0
  7 44  1  0
 44 45  1  0
 44 46  2  0
 46 47  1  0
 46  2  1  0
 42  8  1  0
 29  9  1  0
M  CHG  1  42   1
M  END
>  <score>  (392) 
5.15054

$$$$

     RDKit          3D

 52 55  0  0  0  0  0  0  0  0999 V2000
   16.1055   -8.4701   -1.6146 H   0  0  0  0  0  0  0  0  0  0  0  0
   15.8580   -7.4200   -1.4810 C   0  0  0  0  0  0  0  0  0  0  0  0
   16.7385   -6.5696   -0.8066 C   0  0  0  0  0  0  0  0  0  0  0  0
   17.6710   -6.9597   -0.4109 H   0  0  0  0  0  0  0  0  0  0  0  0
   16.4053   -5.2235   -0.6095 C   0  0  0  0  0  0  0  0  0  0  0  0
   17.0736   -4.5717   -0.0545 H   0  0  0  0  0  0  0  0  0  0  0  0
   15.1911   -4.6976   -1.0784 C   0  0  0  0  0  0  0  0  0  0  0  0
   14.8265   -3.2387   -0.7688 C   0  0  0  0  0  0  0  0  0  0  0  0
   15.3703   -2.2066   -1.7550 C   0  0  0  0  0  0  0  0  0  0  0  0
   15.9227   -2.6108   -2.9807 C   0  0  0  0  0  0  0  0  0  0  0  0
   15.9862   -3.6666   -3.2270 H   0  0  0  0  0  0  0  0  0  0  0  0
   16.4024   -1.6700   -3.8930 C   0  0  0  0  0  0  0  0  0  0  0  0
   16.8386   -1.9827   -4.8359 H   0  0  0  0  0  0  0  0  0  0  0  0
   16.3207   -0.3100   -3.5934 C   0  0  0  0  0  0  0  0  0  0  0  0
   16.6992    0.4322   -4.2855 H   0  0  0  0  0  0  0  0  0  0  0  0
   15.7630    0.1396   -2.3996 C   0  0  0  0  0  0  0  0  0  0  0  0
   15.7370    1.5077   -2.2362 O   0  0  0  0  0  0  0  0  0  0  0  0
   15.1265    2.0742   -1.0673 C   0  0  0  0  0  0  0  0  0  0  0  0
   15.4463    1.5054   -0.1886 H   0  0  0  0  0  0  0  0  0  0  0  0
   15.5911    3.5421   -0.9388 C   0  0  0  0  0  0  0  0  0  0  0  0
   16.6875    3.5889   -0.9342 H   0  0  0  0  0  0  0  0  0  0  0  0
   15.2194    3.9528    0.0052 H   0  0  0  0  0  0  0  0  0  0  0  0
   15.0461    4.4064   -2.0774 C   0  0  0  0  0  0  0  0  0  0  0  0
   15.4593    4.0658   -3.0328 H   0  0  0  0  0  0  0  0  0  0  0  0
   15.3391    5.4557   -1.9380 H   0  0  0  0  0  0  0  0  0  0  0  0
   13.5799    4.2868   -2.0744 N   0  0  0  0  0  0  0  0  0  0  0  0
   13.1944    4.6794   -1.2145 H   0  0  0  0  0  0  0  0  0  0  0  0
   13.0834    2.9171   -2.2907 C   0  0  0  0  0  0  0  0  0  0  0  0
   11.9866    2.9153   -2.3079 H   0  0  0  0  0  0  0  0  0  0  0  0
   13.4406    2.5285   -3.2498 H   0  0  0  0  0  0  0  0  0  0  0  0
   13.5945    2.0300   -1.1577 C   0  0  0  0  0  0  0  0  0  0  0  0
   13.2665    0.9929   -1.2954 H   0  0  0  0  0  0  0  0  0  0  0  0
   13.1766    2.4083   -0.2204 H   0  0  0  0  0  0  0  0  0  0  0  0
   15.2925   -0.8164   -1.4782 C   0  0  0  0  0  0  0  0  0  0  0  0
   14.8727   -0.4653   -0.5416 H   0  0  0  0  0  0  0  0  0  0  0  0
   13.3093   -3.0363   -0.5940 C   0  0  0  0  0  0  0  0  0  0  0  0
   12.4520   -3.1085   -1.4686 O   0  0  0  0  0  0  0  0  0  0  0  0
   13.0285   -2.6805    0.7106 N   0  0  0  0  0  0  0  0  0  0  0  0
   11.7209   -2.3133    1.2688 C   0  0  0  0  0  0  0  0  0  0  0  0
   10.9145   -2.4810    0.5418 H   0  0  0  0  0  0  0  0  0  0  0  0
   11.7062   -1.2532    1.5538 H   0  0  0  0  0  0  0  0  0  0  0  0
   11.5097   -2.9173    2.1602 H   0  0  0  0  0  0  0  0  0  0  0  0
   14.2358   -2.6249    1.3694 C   0  0  0  0  0  0  0  0  0  0  0  0
   14.4057   -2.3075    2.6789 N   0  0  0  0  0  0  0  0  0  0  0  0
   15.3439   -2.3420    3.0822 H   0  0  0  0  0  0  0  0  0  0  0  0
   13.5910   -2.1260    3.2609 H   0  0  0  0  0  0  0  0  0  0  0  0
   15.2401   -2.9117    0.6111 N   0  0  0  0  0  4  0  0  0  0  0  0
   16.2060   -2.9569    0.9437 H   0  0  0  0  0  0  0  0  0  0  0  0
   14.3160   -5.5642   -1.7671 C   0  0  0  0  0  0  0  0  0  0  0  0
   13.3606   -5.1927   -2.1257 H   0  0  0  0  0  0  0  0  0  0  0  0
   14.6471   -6.9160   -1.9657 C   0  0  0  0  0  0  0  0  0  0  0  0
   13.9646   -7.5821   -2.4867 H   0  0  0  0  0  0  0  0  0  0  0  0
  1  2  1  0
  2  3  2  0
  3  4  1  0
  3  5  1  0
  5  6  1  0
  5  7  2  0
  7  8  1  0
  8  9  1  0
  9 10  2  0
 10 11  1  0
 10 12  1  0
 12 13  1  0
 12 14  2  0
 14 15  1  0
 14 16  1  0
 16 17  1  0
 17 18  1  0
 18 19  1  0
 18 20  1  0
 20 21  1  0
 20 22  1  0
 20 23  1  0
 23 24  1  0
 23 25  1  0
 23 26  1  0
 26 27  1  0
 26 28  1  0
 28 29  1  0
 28 30  1  0
 28 31  1  0
 31 32  1  0
 31 33  1  0
 16 34  2  0
 34 35  1  0
  8 36  1  0
 36 37  2  0
 36 38  1  0
 38 39  1  0
 39 40  1  0
 39 41  1  0
 39 42  1  0
 38 43  1  0
 43 44  1  0
 44 45  1  0
 44 46  1  0
 43 47  2  0
 47 48  1  0
  7 49  1  0
 49 50  1  0
 49 51  2  0
 51 52  1  0
 51  2  1  0
 47  8  1  0
 34  9  1  0
 31 18  1  0
M  CHG  1  47   1
M  END
>  <score>  (393) 
5.15027

$$$$

     RDKit          3D

 48 51  0  0  0  0  0  0  0  0999 V2000
   13.2220  -11.2408   -1.8136 H   0  0  0  0  0  0  0  0  0  0  0  0
   12.8889  -10.2096   -1.8720 C   0  0  0  0  0  0  0  0  0  0  0  0
   13.8166   -9.2529   -1.7981 N   0  0  0  0  0  0  0  0  0  0  0  0
   13.4502   -7.9574   -1.8087 C   0  0  0  0  0  0  0  0  0  0  0  0
   14.4922   -6.9408   -1.5513 C   0  0  0  0  0  0  0  0  0  0  0  0
   15.8157   -7.3651   -1.3390 C   0  0  0  0  0  0  0  0  0  0  0  0
   16.0603   -8.4200   -1.4289 H   0  0  0  0  0  0  0  0  0  0  0  0
   16.8131   -6.4752   -0.9423 C   0  0  0  0  0  0  0  0  0  0  0  0
   17.8154   -6.8342   -0.7180 H   0  0  0  0  0  0  0  0  0  0  0  0
   16.4994   -5.1250   -0.7711 C   0  0  0  0  0  0  0  0  0  0  0  0
   17.2701   -4.4290   -0.4486 H   0  0  0  0  0  0  0  0  0  0  0  0
   15.1892   -4.6616   -0.9739 C   0  0  0  0  0  0  0  0  0  0  0  0
   14.8445   -3.2078   -0.6777 C   0  0  0  0  0  0  0  0  0  0  0  0
   15.4039   -2.2362   -1.7049 C   0  0  0  0  0  0  0  0  0  0  0  0
   15.9361   -2.6718   -2.9321 C   0  0  0  0  0  0  0  0  0  0  0  0
   15.9766   -3.7335   -3.1582 H   0  0  0  0  0  0  0  0  0  0  0  0
   16.4135   -1.7469   -3.8688 C   0  0  0  0  0  0  0  0  0  0  0  0
   16.8233   -2.0876   -4.8133 H   0  0  0  0  0  0  0  0  0  0  0  0
   16.3597   -0.3780   -3.5947 C   0  0  0  0  0  0  0  0  0  0  0  0
   16.7321    0.3380   -4.3223 H   0  0  0  0  0  0  0  0  0  0  0  0
   15.8239    0.0669   -2.3832 C   0  0  0  0  0  0  0  0  0  0  0  0
   15.7741    1.1288   -2.1661 H   0  0  0  0  0  0  0  0  0  0  0  0
   15.3469   -0.8565   -1.4485 C   0  0  0  0  0  0  0  0  0  0  0  0
   14.9273   -0.4998   -0.5112 H   0  0  0  0  0  0  0  0  0  0  0  0
   13.3317   -2.9723   -0.4891 C   0  0  0  0  0  0  0  0  0  0  0  0
   12.4417   -3.1486   -1.3164 O   0  0  0  0  0  0  0  0  0  0  0  0
   13.0868   -2.5559    0.8057 N   0  0  0  0  0  0  0  0  0  0  0  0
   11.7803   -2.2454    1.3874 C   0  0  0  0  0  0  0  0  0  0  0  0
   11.7243   -1.1894    1.6725 H   0  0  0  0  0  0  0  0  0  0  0  0
   10.9765   -2.4414    0.6686 H   0  0  0  0  0  0  0  0  0  0  0  0
   11.5948   -2.8578    2.2777 H   0  0  0  0  0  0  0  0  0  0  0  0
   14.3011   -2.5072    1.4523 C   0  0  0  0  0  0  0  0  0  0  0  0
   14.4956   -2.1401    2.7490 N   0  0  0  0  0  0  0  0  0  0  0  0
   15.4202   -2.2874    3.1523 H   0  0  0  0  0  0  0  0  0  0  0  0
   13.6840   -2.0744    3.3614 H   0  0  0  0  0  0  0  0  0  0  0  0
   15.2842   -2.8610    0.6904 N   0  0  0  0  0  4  0  0  0  0  0  0
   16.2514   -2.9321    1.0112 H   0  0  0  0  0  0  0  0  0  0  0  0
   14.1958   -5.5724   -1.3856 C   0  0  0  0  0  0  0  0  0  0  0  0
   13.1766   -5.2220   -1.5244 H   0  0  0  0  0  0  0  0  0  0  0  0
   12.1004   -7.6108   -1.9466 C   0  0  0  0  0  0  0  0  0  0  0  0
   11.8252   -6.5692   -1.9999 H   0  0  0  0  0  0  0  0  0  0  0  0
   11.1217   -8.5978   -2.0301 C   0  0  0  0  0  0  0  0  0  0  0  0
    9.6790   -8.2772   -2.2366 C   0  0  0  0  0  0  0  0  0  0  0  0
    9.5497   -7.2354   -2.5377 H   0  0  0  0  0  0  0  0  0  0  0  0
    9.0997   -8.4562   -1.3255 H   0  0  0  0  0  0  0  0  0  0  0  0
    9.3087   -8.9245   -3.0335 H   0  0  0  0  0  0  0  0  0  0  0  0
   11.5302   -9.9233   -1.9718 C   0  0  0  0  0  0  0  0  0  0  0  0
   10.8118  -10.7345   -2.0215 H   0  0  0  0  0  0  0  0  0  0  0  0
  1  2  1  0
  2  3  2  0
  3  4  1  0
  4  5  1  0
  5  6  2  0
  6  7  1  0
  6  8  1  0
  8  9  1  0
  8 10  2  0
 10 11  1  0
 10 12  1  0
 12 13  1  0
 13 14  1  0
 14 15  2  0
 15 16  1  0
 15 17  1  0
 17 18  1  0
 17 19  2  0
 19 20  1  0
 19 21  1  0
 21 22  1  0
 21 23  2  0
 23 24  1  0
 13 25  1  0
 25 26  2  0
 25 27  1  0
 27 28  1  0
 28 29  1  0
 28 30  1  0
 28 31  1  0
 27 32  1  0
 32 33  1  0
 33 34  1  0
 33 35  1  0
 32 36  2  0
 36 37  1  0
 12 38  2  0
 38 39  1  0
  4 40  2  0
 40 41  1  0
 40 42  1  0
 42 43  1  0
 43 44  1  0
 43 45  1  0
 43 46  1  0
 42 47  2  0
 47 48  1  0
 47  2  1  0
 38  5  1  0
 36 13  1  0
 23 14  1  0
M  CHG  1  36   1
M  END
>  <score>  (394) 
5.14856

$$$$

     RDKit          3D

 45 48  0  0  0  0  0  0  0  0999 V2000
   11.8052   -6.4592   -1.0494 H   0  0  0  0  0  0  0  0  0  0  0  0
   11.8314   -7.3888   -1.6135 C   0  0  0  0  0  0  0  0  0  0  0  0
   10.6976   -8.1053   -1.7161 N   0  0  0  0  0  0  0  0  0  0  0  0
   10.7665   -9.3269   -2.2638 C   0  0  0  0  0  0  0  0  0  0  0  0
    9.3466  -10.3450   -2.2799 Cl  0  0  0  0  0  0  0  0  0  0  0  0
   11.9612   -9.8354   -2.7777 C   0  0  0  0  0  0  0  0  0  0  0  0
   11.9390  -10.8203   -3.2330 H   0  0  0  0  0  0  0  0  0  0  0  0
   13.1403   -9.0781   -2.7083 C   0  0  0  0  0  0  0  0  0  0  0  0
   14.0660   -9.4811   -3.1078 H   0  0  0  0  0  0  0  0  0  0  0  0
   13.0758   -7.8180   -2.0909 C   0  0  0  0  0  0  0  0  0  0  0  0
   14.2411   -6.9658   -1.7965 C   0  0  0  0  0  0  0  0  0  0  0  0
   15.4850   -7.5182   -1.4769 C   0  0  0  0  0  0  0  0  0  0  0  0
   15.6314   -8.5909   -1.5616 H   0  0  0  0  0  0  0  0  0  0  0  0
   16.4999   -6.7032   -0.9557 C   0  0  0  0  0  0  0  0  0  0  0  0
   17.4543   -7.1344   -0.6666 H   0  0  0  0  0  0  0  0  0  0  0  0
   16.2745   -5.3352   -0.7481 C   0  0  0  0  0  0  0  0  0  0  0  0
   17.0447   -4.7267   -0.2817 H   0  0  0  0  0  0  0  0  0  0  0  0
   15.0503   -4.7481   -1.0908 C   0  0  0  0  0  0  0  0  0  0  0  0
   14.7851   -3.2750   -0.7786 C   0  0  0  0  0  0  0  0  0  0  0  0
   15.3784   -2.2768   -1.7733 C   0  0  0  0  0  0  0  0  0  0  0  0
   15.9375   -2.6742   -3.0018 C   0  0  0  0  0  0  0  0  0  0  0  0
   15.9921   -3.7296   -3.2541 H   0  0  0  0  0  0  0  0  0  0  0  0
   16.4187   -1.7193   -3.9105 C   0  0  0  0  0  0  0  0  0  0  0  0
   16.8460   -2.0314   -4.8568 H   0  0  0  0  0  0  0  0  0  0  0  0
   16.3481   -0.3564   -3.6089 C   0  0  0  0  0  0  0  0  0  0  0  0
   16.7194    0.3798   -4.3172 H   0  0  0  0  0  0  0  0  0  0  0  0
   15.7946    0.0522   -2.3947 C   0  0  0  0  0  0  0  0  0  0  0  0
   15.7357    1.1092   -2.1552 H   0  0  0  0  0  0  0  0  0  0  0  0
   15.3131   -0.8988   -1.4890 C   0  0  0  0  0  0  0  0  0  0  0  0
   14.8795   -0.5603   -0.5522 H   0  0  0  0  0  0  0  0  0  0  0  0
   13.2782   -3.0216   -0.5912 C   0  0  0  0  0  0  0  0  0  0  0  0
   12.3977   -3.1206   -1.4437 O   0  0  0  0  0  0  0  0  0  0  0  0
   13.0301   -2.6624    0.7165 N   0  0  0  0  0  0  0  0  0  0  0  0
   11.7321   -2.3052    1.2863 C   0  0  0  0  0  0  0  0  0  0  0  0
   11.7177   -1.2492    1.5735 H   0  0  0  0  0  0  0  0  0  0  0  0
   11.5161   -2.9106    2.1731 H   0  0  0  0  0  0  0  0  0  0  0  0
   10.9272   -2.4720    0.5616 H   0  0  0  0  0  0  0  0  0  0  0  0
   14.2434   -2.6271    1.3675 C   0  0  0  0  0  0  0  0  0  0  0  0
   14.4284   -2.2781    2.6724 N   0  0  0  0  0  0  0  0  0  0  0  0
   15.3625   -2.3347    3.0758 H   0  0  0  0  0  0  0  0  0  0  0  0
   13.6172   -2.1180    3.2676 H   0  0  0  0  0  0  0  0  0  0  0  0
   15.2275   -2.9647    0.5992 N   0  0  0  0  0  4  0  0  0  0  0  0
   16.2037   -2.9859    0.9006 H   0  0  0  0  0  0  0  0  0  0  0  0
   14.0535   -5.5812   -1.6335 C   0  0  0  0  0  0  0  0  0  0  0  0
   13.0813   -5.1674   -1.8744 H   0  0  0  0  0  0  0  0  0  0  0  0
  1  2  1  0
  2  3  2  0
  3  4  1  0
  4  5  1  0
  4  6  2  0
  6  7  1  0
  6  8  1  0
  8  9  1  0
  8 10  2  0
 10 11  1  0
 11 12  2  0
 12 13  1  0
 12 14  1  0
 14 15  1  0
 14 16  2  0
 16 17  1  0
 16 18  1  0
 18 19  1  0
 19 20  1  0
 20 21  2  0
 21 22  1  0
 21 23  1  0
 23 24  1  0
 23 25  2  0
 25 26  1  0
 25 27  1  0
 27 28  1  0
 27 29  2  0
 29 30  1  0
 19 31  1  0
 31 32  2  0
 31 33  1  0
 33 34  1  0
 34 35  1  0
 34 36  1  0
 34 37  1  0
 33 38  1  0
 38 39  1  0
 39 40  1  0
 39 41  1  0
 38 42  2  0
 42 43  1  0
 18 44  2  0
 44 45  1  0
 10  2  1  0
 44 11  1  0
 42 19  1  0
 29 20  1  0
M  CHG  1  42   1
M  END
>  <score>  (395) 
5.14201

$$$$

     RDKit          3D

 47 50  0  0  0  0  0  0  0  0999 V2000
    8.8902   -9.3777   -2.6580 H   0  0  0  0  0  0  0  0  0  0  0  0
    9.5753   -8.6767   -2.1915 C   0  0  0  0  0  0  0  0  0  0  0  0
    9.0638   -7.7045   -1.4268 N   0  0  0  0  0  0  0  0  0  0  0  0
    9.9157   -6.8364   -0.8644 C   0  0  0  0  0  0  0  0  0  0  0  0
    9.5138   -6.0697   -0.2102 H   0  0  0  0  0  0  0  0  0  0  0  0
   11.3062   -6.9063   -1.0529 C   0  0  0  0  0  0  0  0  0  0  0  0
   11.9003   -6.1602   -0.5436 H   0  0  0  0  0  0  0  0  0  0  0  0
   11.8851   -7.9205   -1.8426 C   0  0  0  0  0  0  0  0  0  0  0  0
   13.3709   -8.1077   -2.0424 C   0  0  0  0  0  0  0  0  0  0  0  0
   13.7663   -9.1475   -2.5744 O   0  0  0  0  0  0  0  0  0  0  0  0
   14.3949   -7.1330   -1.5838 C   0  0  0  0  0  0  0  0  0  0  0  0
   15.7159   -7.5579   -1.3353 C   0  0  0  0  0  0  0  0  0  0  0  0
   15.9914   -8.6031   -1.4675 H   0  0  0  0  0  0  0  0  0  0  0  0
   16.6892   -6.6450   -0.9149 C   0  0  0  0  0  0  0  0  0  0  0  0
   17.7019   -6.9809   -0.7217 H   0  0  0  0  0  0  0  0  0  0  0  0
   16.3593   -5.3036   -0.7229 C   0  0  0  0  0  0  0  0  0  0  0  0
   17.1157   -4.6048   -0.3690 H   0  0  0  0  0  0  0  0  0  0  0  0
   15.0541   -4.8513   -0.9500 C   0  0  0  0  0  0  0  0  0  0  0  0
   14.7065   -3.3950   -0.6771 C   0  0  0  0  0  0  0  0  0  0  0  0
   15.3084   -2.4245   -1.6809 C   0  0  0  0  0  0  0  0  0  0  0  0
   15.8558   -2.8395   -2.9091 C   0  0  0  0  0  0  0  0  0  0  0  0
   15.8756   -3.8942   -3.1742 H   0  0  0  0  0  0  0  0  0  0  0  0
   16.3742   -1.8955   -3.8077 C   0  0  0  0  0  0  0  0  0  0  0  0
   16.7944   -2.2095   -4.7574 H   0  0  0  0  0  0  0  0  0  0  0  0
   16.3485   -0.5325   -3.4874 C   0  0  0  0  0  0  0  0  0  0  0  0
   16.7642    0.2027   -4.1699 H   0  0  0  0  0  0  0  0  0  0  0  0
   15.7794   -0.1094   -2.2837 C   0  0  0  0  0  0  0  0  0  0  0  0
   15.7274    0.9452   -2.0275 H   0  0  0  0  0  0  0  0  0  0  0  0
   15.2623   -1.0503   -1.3927 C   0  0  0  0  0  0  0  0  0  0  0  0
   14.8122   -0.7223   -0.4596 H   0  0  0  0  0  0  0  0  0  0  0  0
   13.1972   -3.1240   -0.5343 C   0  0  0  0  0  0  0  0  0  0  0  0
   12.3333   -3.4050   -1.3616 O   0  0  0  0  0  0  0  0  0  0  0  0
   12.9478   -2.5373    0.6911 N   0  0  0  0  0  0  0  0  0  0  0  0
   11.6371   -2.2163    1.2531 C   0  0  0  0  0  0  0  0  0  0  0  0
   11.4204   -2.8697    2.1095 H   0  0  0  0  0  0  0  0  0  0  0  0
   11.6246   -1.1697    1.5789 H   0  0  0  0  0  0  0  0  0  0  0  0
   10.8417   -2.3468    0.5080 H   0  0  0  0  0  0  0  0  0  0  0  0
   14.1430   -2.5389    1.3842 C   0  0  0  0  0  0  0  0  0  0  0  0
   14.3103   -2.1515    2.6854 N   0  0  0  0  0  0  0  0  0  0  0  0
   13.4810   -2.0042    3.2552 H   0  0  0  0  0  0  0  0  0  0  0  0
   15.1941   -2.3829    3.1295 H   0  0  0  0  0  0  0  0  0  0  0  0
   15.1227   -3.0229    0.6882 N   0  0  0  0  0  4  0  0  0  0  0  0
   16.0750   -3.1511    1.0393 H   0  0  0  0  0  0  0  0  0  0  0  0
   14.0860   -5.7709   -1.4043 C   0  0  0  0  0  0  0  0  0  0  0  0
   13.0832   -5.4171   -1.6213 H   0  0  0  0  0  0  0  0  0  0  0  0
   10.9516   -8.8003   -2.4267 C   0  0  0  0  0  0  0  0  0  0  0  0
   11.2841   -9.5890   -3.0904 H   0  0  0  0  0  0  0  0  0  0  0  0
  1  2  1  0
  2  3  2  0
  3  4  1  0
  4  5  1  0
  4  6  2  0
  6  7  1  0
  6  8  1  0
  8  9  1  0
  9 10  2  0
  9 11  1  0
 11 12  2  0
 12 13  1  0
 12 14  1  0
 14 15  1  0
 14 16  2  0
 16 17  1  0
 16 18  1  0
 18 19  1  0
 19 20  1  0
 20 21  2  0
 21 22  1  0
 21 23  1  0
 23 24  1  0
 23 25  2  0
 25 26  1  0
 25 27  1  0
 27 28  1  0
 27 29  2  0
 29 30  1  0
 19 31  1  0
 31 32  2  0
 31 33  1  0
 33 34  1  0
 34 35  1  0
 34 36  1  0
 34 37  1  0
 33 38  1  0
 38 39  1  0
 39 40  1  0
 39 41  1  0
 38 42  2  0
 42 43  1  0
 18 44  2  0
 44 45  1  0
  8 46  2  0
 46 47  1  0
 46  2  1  0
 44 11  1  0
 42 19  1  0
 29 20  1  0
M  CHG  1  42   1
M  END
>  <score>  (396) 
5.13955

$$$$

     RDKit          3D

 47 49  0  0  0  0  0  0  0  0999 V2000
   16.1197   -8.4849   -1.6115 H   0  0  0  0  0  0  0  0  0  0  0  0
   15.8536   -7.4389   -1.4736 C   0  0  0  0  0  0  0  0  0  0  0  0
   16.7302   -6.5817   -0.8037 C   0  0  0  0  0  0  0  0  0  0  0  0
   17.6714   -6.9565   -0.4161 H   0  0  0  0  0  0  0  0  0  0  0  0
   16.3948   -5.2369   -0.6115 C   0  0  0  0  0  0  0  0  0  0  0  0
   17.0667   -4.5849   -0.0619 H   0  0  0  0  0  0  0  0  0  0  0  0
   15.1761   -4.7157   -1.0747 C   0  0  0  0  0  0  0  0  0  0  0  0
   14.8171   -3.2560   -0.7822 C   0  0  0  0  0  0  0  0  0  0  0  0
   15.3913   -2.2532   -1.7765 C   0  0  0  0  0  0  0  0  0  0  0  0
   15.9455   -2.6449   -3.0055 C   0  0  0  0  0  0  0  0  0  0  0  0
   16.0014   -3.6963   -3.2551 H   0  0  0  0  0  0  0  0  0  0  0  0
   16.4235   -1.6968   -3.9202 C   0  0  0  0  0  0  0  0  0  0  0  0
   16.8553   -2.0047   -4.8650 H   0  0  0  0  0  0  0  0  0  0  0  0
   16.3397   -0.3347   -3.6291 C   0  0  0  0  0  0  0  0  0  0  0  0
   16.7015    0.3995   -4.3458 H   0  0  0  0  0  0  0  0  0  0  0  0
   15.7714    0.0855   -2.4199 C   0  0  0  0  0  0  0  0  0  0  0  0
   15.6688    1.5561   -2.1000 C   0  0  0  0  0  0  0  0  0  0  0  0
   15.7683    1.7142   -1.0225 H   0  0  0  0  0  0  0  0  0  0  0  0
   16.4853    2.1041   -2.5802 H   0  0  0  0  0  0  0  0  0  0  0  0
   14.3850    2.1068   -2.5626 N   0  0  0  0  0  0  0  0  0  0  0  0
   13.5986    1.6121   -2.1438 H   0  0  0  0  0  0  0  0  0  0  0  0
   14.2555    3.5552   -2.3854 C   0  0  0  0  0  0  0  0  0  0  0  0
   15.1002    4.0581   -2.8624 H   0  0  0  0  0  0  0  0  0  0  0  0
   14.2683    3.8069   -1.3206 H   0  0  0  0  0  0  0  0  0  0  0  0
   12.9595    4.0415   -3.0088 C   0  0  0  0  0  0  0  0  0  0  0  0
   12.1002    3.5591   -2.5382 H   0  0  0  0  0  0  0  0  0  0  0  0
   12.8730    5.1235   -2.8751 H   0  0  0  0  0  0  0  0  0  0  0  0
   12.9395    3.8216   -4.0794 H   0  0  0  0  0  0  0  0  0  0  0  0
   15.3122   -0.8759   -1.5051 C   0  0  0  0  0  0  0  0  0  0  0  0
   14.8870   -0.5411   -0.5642 H   0  0  0  0  0  0  0  0  0  0  0  0
   13.3035   -3.0309   -0.6005 C   0  0  0  0  0  0  0  0  0  0  0  0
   12.4326   -3.0906   -1.4669 O   0  0  0  0  0  0  0  0  0  0  0  0
   13.0252   -2.6770    0.7037 N   0  0  0  0  0  0  0  0  0  0  0  0
   11.7202   -2.3136    1.2635 C   0  0  0  0  0  0  0  0  0  0  0  0
   10.9122   -2.4738    0.5420 H   0  0  0  0  0  0  0  0  0  0  0  0
   11.6953   -1.2619    1.5595 H   0  0  0  0  0  0  0  0  0  0  0  0
   11.5033   -2.9166    2.1474 H   0  0  0  0  0  0  0  0  0  0  0  0
   14.2267   -2.6289    1.3641 C   0  0  0  0  0  0  0  0  0  0  0  0
   14.3961   -2.3288    2.6824 N   0  0  0  0  0  0  0  0  0  0  0  0
   13.5830   -2.1276    3.2589 H   0  0  0  0  0  0  0  0  0  0  0  0
   15.3338   -2.3529    3.0890 H   0  0  0  0  0  0  0  0  0  0  0  0
   15.2201   -2.9057    0.5949 N   0  0  0  0  0  4  0  0  0  0  0  0
   16.1896   -2.9172    0.9108 H   0  0  0  0  0  0  0  0  0  0  0  0
   14.3048   -5.5857   -1.7675 C   0  0  0  0  0  0  0  0  0  0  0  0
   13.3539   -5.2287   -2.1530 H   0  0  0  0  0  0  0  0  0  0  0  0
   14.6432   -6.9366   -1.9623 C   0  0  0  0  0  0  0  0  0  0  0  0
   13.9723   -7.6098   -2.4877 H   0  0  0  0  0  0  0  0  0  0  0  0
  1  2  1  0
  2  3  2  0
  3  4  1  0
  3  5  1  0
  5  6  1  0
  5  7  2  0
  7  8  1  0
  8  9  1  0
  9 10  2  0
 10 11  1  0
 10 12  1  0
 12 13  1  0
 12 14  2  0
 14 15  1  0
 14 16  1  0
 16 17  1  0
 17 18  1  0
 17 19  1  0
 17 20  1  0
 20 21  1  0
 20 22  1  0
 22 23  1  0
 22 24  1  0
 22 25  1  0
 25 26  1  0
 25 27  1  0
 25 28  1  0
 16 29  2  0
 29 30  1  0
  8 31  1  0
 31 32  2  0
 31 33  1  0
 33 34  1  0
 34 35  1  0
 34 36  1  0
 34 37  1  0
 33 38  1  0
 38 39  1  0
 39 40  1  0
 39 41  1  0
 38 42  2  0
 42 43  1  0
  7 44  1  0
 44 45  1  0
 44 46  2  0
 46 47  1  0
 46  2  1  0
 42  8  1  0
 29  9  1  0
M  CHG  1  42   1
M  END
>  <score>  (397) 
5.13853

$$$$

     RDKit          3D

 39 41  0  0  0  0  0  0  0  0999 V2000
   14.5813  -10.6928   -2.4965 H   0  0  0  0  0  0  0  0  0  0  0  0
   13.6976  -10.1977   -2.6125 N   0  0  0  0  0  0  0  0  0  0  0  0
   13.7186   -8.9299   -2.6606 N   0  0  0  0  0  4  0  0  0  0  0  0
   13.7108   -7.6632   -2.7352 N   0  0  0  0  0  0  0  0  0  0  0  0
   14.6370   -6.9135   -2.0079 C   0  0  0  0  0  0  0  0  0  0  0  0
   15.8458   -7.4173   -1.4843 C   0  0  0  0  0  0  0  0  0  0  0  0
   16.1002   -8.4637   -1.6228 H   0  0  0  0  0  0  0  0  0  0  0  0
   16.7343   -6.5726   -0.7921 C   0  0  0  0  0  0  0  0  0  0  0  0
   17.6782   -6.9578   -0.4039 H   0  0  0  0  0  0  0  0  0  0  0  0
   16.4087   -5.2224   -0.5909 C   0  0  0  0  0  0  0  0  0  0  0  0
   17.0865   -4.5624   -0.0500 H   0  0  0  0  0  0  0  0  0  0  0  0
   15.1918   -4.7038   -1.0625 C   0  0  0  0  0  0  0  0  0  0  0  0
   14.8192   -3.2456   -0.7696 C   0  0  0  0  0  0  0  0  0  0  0  0
   15.3944   -2.2493   -1.7741 C   0  0  0  0  0  0  0  0  0  0  0  0
   15.9460   -2.6498   -3.0054 C   0  0  0  0  0  0  0  0  0  0  0  0
   15.9976   -3.7060   -3.2506 H   0  0  0  0  0  0  0  0  0  0  0  0
   16.4239   -1.7004   -3.9224 C   0  0  0  0  0  0  0  0  0  0  0  0
   16.8515   -2.0115   -4.8711 H   0  0  0  0  0  0  0  0  0  0  0  0
   16.3467   -0.3378   -3.6245 C   0  0  0  0  0  0  0  0  0  0  0  0
   16.7158    0.4016   -4.3310 H   0  0  0  0  0  0  0  0  0  0  0  0
   15.7958    0.0725   -2.4081 C   0  0  0  0  0  0  0  0  0  0  0  0
   15.7316    1.1288   -2.1683 H   0  0  0  0  0  0  0  0  0  0  0  0
   15.3225   -0.8743   -1.4948 C   0  0  0  0  0  0  0  0  0  0  0  0
   14.8869   -0.5398   -0.5567 H   0  0  0  0  0  0  0  0  0  0  0  0
   13.2977   -3.0198   -0.5979 C   0  0  0  0  0  0  0  0  0  0  0  0
   12.4368   -3.1304   -1.4687 O   0  0  0  0  0  0  0  0  0  0  0  0
   13.0222   -2.6729    0.7121 N   0  0  0  0  0  0  0  0  0  0  0  0
   11.7173   -2.3098    1.2752 C   0  0  0  0  0  0  0  0  0  0  0  0
   10.9128   -2.4733    0.5441 H   0  0  0  0  0  0  0  0  0  0  0  0
   11.4983   -2.9194    2.1629 H   0  0  0  0  0  0  0  0  0  0  0  0
   11.7033   -1.2499    1.5648 H   0  0  0  0  0  0  0  0  0  0  0  0
   14.2348   -2.6278    1.3754 C   0  0  0  0  0  0  0  0  0  0  0  0
   14.4050   -2.3128    2.6934 N   0  0  0  0  0  0  0  0  0  0  0  0
   13.5921   -2.1161    3.2740 H   0  0  0  0  0  0  0  0  0  0  0  0
   15.3418   -2.3329    3.0938 H   0  0  0  0  0  0  0  0  0  0  0  0
   15.2374   -2.9187    0.6098 N   0  0  0  0  0  4  0  0  0  0  0  0
   16.2129   -2.9192    0.9196 H   0  0  0  0  0  0  0  0  0  0  0  0
   14.3316   -5.5619   -1.7774 C   0  0  0  0  0  0  0  0  0  0  0  0
   13.3824   -5.1731   -2.1354 H   0  0  0  0  0  0  0  0  0  0  0  0
  1  2  1  0
  2  3  2  0
  3  4  2  0
  4  5  1  0
  5  6  2  0
  6  7  1  0
  6  8  1  0
  8  9  1  0
  8 10  2  0
 10 11  1  0
 10 12  1  0
 12 13  1  0
 13 14  1  0
 14 15  2  0
 15 16  1  0
 15 17  1  0
 17 18  1  0
 17 19  2  0
 19 20  1  0
 19 21  1  0
 21 22  1  0
 21 23  2  0
 23 24  1  0
 13 25  1  0
 25 26  2  0
 25 27  1  0
 27 28  1  0
 28 29  1  0
 28 30  1  0
 28 31  1  0
 27 32  1  0
 32 33  1  0
 33 34  1  0
 33 35  1  0
 32 36  2  0
 36 37  1  0
 12 38  2  0
 38 39  1  0
 38  5  1  0
 36 13  1  0
 23 14  1  0
M  CHG  2   3   1  36   1
M  END
>  <score>  (398) 
5.13369

$$$$

     RDKit          3D

 44 46  0  0  0  0  0  0  0  0999 V2000
   16.1249   -8.4889   -1.6109 H   0  0  0  0  0  0  0  0  0  0  0  0
   15.8534   -7.4447   -1.4707 C   0  0  0  0  0  0  0  0  0  0  0  0
   16.7269   -6.5862   -0.8000 C   0  0  0  0  0  0  0  0  0  0  0  0
   17.6745   -6.9554   -0.4187 H   0  0  0  0  0  0  0  0  0  0  0  0
   16.3877   -5.2421   -0.6105 C   0  0  0  0  0  0  0  0  0  0  0  0
   17.0679   -4.5927   -0.0674 H   0  0  0  0  0  0  0  0  0  0  0  0
   15.1685   -4.7195   -1.0731 C   0  0  0  0  0  0  0  0  0  0  0  0
   14.8116   -3.2529   -0.7846 C   0  0  0  0  0  0  0  0  0  0  0  0
   15.3905   -2.2475   -1.7807 C   0  0  0  0  0  0  0  0  0  0  0  0
   15.9448   -2.6415   -3.0098 C   0  0  0  0  0  0  0  0  0  0  0  0
   16.0053   -3.6940   -3.2644 H   0  0  0  0  0  0  0  0  0  0  0  0
   16.4220   -1.6897   -3.9210 C   0  0  0  0  0  0  0  0  0  0  0  0
   16.8569   -2.0044   -4.8641 H   0  0  0  0  0  0  0  0  0  0  0  0
   16.3395   -0.3255   -3.6266 C   0  0  0  0  0  0  0  0  0  0  0  0
   16.6975    0.4086   -4.3436 H   0  0  0  0  0  0  0  0  0  0  0  0
   15.7807    0.0955   -2.4153 C   0  0  0  0  0  0  0  0  0  0  0  0
   15.6667    1.5705   -2.0927 C   0  0  0  0  0  0  0  0  0  0  0  0
   16.3478    2.1540   -2.7131 H   0  0  0  0  0  0  0  0  0  0  0  0
   15.9518    1.7433   -1.0547 H   0  0  0  0  0  0  0  0  0  0  0  0
   14.2506    2.1011   -2.2962 C   0  0  0  0  0  0  0  0  0  0  0  0
   13.5421    1.5142   -1.7060 H   0  0  0  0  0  0  0  0  0  0  0  0
   14.1794    3.1380   -1.9469 H   0  0  0  0  0  0  0  0  0  0  0  0
   13.8898    2.0465   -3.7163 N   0  0  0  0  0  0  0  0  0  0  0  0
   13.8036    1.0802   -4.0344 H   0  0  0  0  0  0  0  0  0  0  0  0
   14.5576    2.5654   -4.2881 H   0  0  0  0  0  0  0  0  0  0  0  0
   15.3166   -0.8670   -1.5079 C   0  0  0  0  0  0  0  0  0  0  0  0
   14.8930   -0.5271   -0.5686 H   0  0  0  0  0  0  0  0  0  0  0  0
   13.2972   -3.0227   -0.6072 C   0  0  0  0  0  0  0  0  0  0  0  0
   12.4281   -3.0832   -1.4731 O   0  0  0  0  0  0  0  0  0  0  0  0
   13.0231   -2.6723    0.7007 N   0  0  0  0  0  0  0  0  0  0  0  0
   11.7196   -2.3132    1.2618 C   0  0  0  0  0  0  0  0  0  0  0  0
   11.5018   -2.9170    2.1450 H   0  0  0  0  0  0  0  0  0  0  0  0
   11.6926   -1.2622    1.5589 H   0  0  0  0  0  0  0  0  0  0  0  0
   10.9143   -2.4748    0.5411 H   0  0  0  0  0  0  0  0  0  0  0  0
   14.2225   -2.6301    1.3656 C   0  0  0  0  0  0  0  0  0  0  0  0
   14.3944   -2.3357    2.6879 N   0  0  0  0  0  0  0  0  0  0  0  0
   15.3273   -2.3563    3.0939 H   0  0  0  0  0  0  0  0  0  0  0  0
   13.5805   -2.1270    3.2639 H   0  0  0  0  0  0  0  0  0  0  0  0
   15.2194   -2.9064    0.5923 N   0  0  0  0  0  4  0  0  0  0  0  0
   16.1881   -2.9022    0.8997 H   0  0  0  0  0  0  0  0  0  0  0  0
   14.3009   -5.5936   -1.7678 C   0  0  0  0  0  0  0  0  0  0  0  0
   13.3523   -5.2423   -2.1649 H   0  0  0  0  0  0  0  0  0  0  0  0
   14.6426   -6.9448   -1.9610 C   0  0  0  0  0  0  0  0  0  0  0  0
   13.9732   -7.6192   -2.4885 H   0  0  0  0  0  0  0  0  0  0  0  0
  1  2  1  0
  2  3  2  0
  3  4  1  0
  3  5  1  0
  5  6  1  0
  5  7  2  0
  7  8  1  0
  8  9  1  0
  9 10  2  0
 10 11  1  0
 10 12  1  0
 12 13  1  0
 12 14  2  0
 14 15  1  0
 14 16  1  0
 16 17  1  0
 17 18  1  0
 17 19  1  0
 17 20  1  0
 20 21  1  0
 20 22  1  0
 20 23  1  0
 23 24  1  0
 23 25  1  0
 16 26  2  0
 26 27  1  0
  8 28  1  0
 28 29  2  0
 28 30  1  0
 30 31  1  0
 31 32  1  0
 31 33  1  0
 31 34  1  0
 30 35  1  0
 35 36  1  0
 36 37  1  0
 36 38  1  0
 35 39  2  0
 39 40  1  0
  7 41  1  0
 41 42  1  0
 41 43  2  0
 43 44  1  0
 43  2  1  0
 39  8  1  0
 26  9  1  0
M  CHG  1  39   1
M  END
>  <score>  (399) 
5.13106

$$$$

     RDKit          3D

 46 48  0  0  0  0  0  0  0  0999 V2000
   16.0978   -8.4569   -1.6174 H   0  0  0  0  0  0  0  0  0  0  0  0
   15.8591   -7.4054   -1.4853 C   0  0  0  0  0  0  0  0  0  0  0  0
   16.7420   -6.5628   -0.8039 C   0  0  0  0  0  0  0  0  0  0  0  0
   17.6726   -6.9585   -0.4090 H   0  0  0  0  0  0  0  0  0  0  0  0
   16.4139   -5.2163   -0.6080 C   0  0  0  0  0  0  0  0  0  0  0  0
   17.0827   -4.5658   -0.0519 H   0  0  0  0  0  0  0  0  0  0  0  0
   15.1995   -4.6906   -1.0745 C   0  0  0  0  0  0  0  0  0  0  0  0
   14.8357   -3.2355   -0.7694 C   0  0  0  0  0  0  0  0  0  0  0  0
   15.3899   -2.2221   -1.7771 C   0  0  0  0  0  0  0  0  0  0  0  0
   15.9392   -2.6094   -3.0096 C   0  0  0  0  0  0  0  0  0  0  0  0
   15.9901   -3.6696   -3.2408 H   0  0  0  0  0  0  0  0  0  0  0  0
   16.4175   -1.6537   -3.9225 C   0  0  0  0  0  0  0  0  0  0  0  0
   16.8443   -1.9835   -4.8665 H   0  0  0  0  0  0  0  0  0  0  0  0
   16.3427   -0.2844   -3.6120 C   0  0  0  0  0  0  0  0  0  0  0  0
   16.7164    0.4687   -4.2994 H   0  0  0  0  0  0  0  0  0  0  0  0
   15.7830    0.1267   -2.3917 C   0  0  0  0  0  0  0  0  0  0  0  0
   15.6469    1.4306   -1.9828 O   0  0  0  0  0  0  0  0  0  0  0  0
   16.1170    2.4555   -2.8607 C   0  0  0  0  0  0  0  0  0  0  0  0
   17.1857    2.3112   -3.0562 H   0  0  0  0  0  0  0  0  0  0  0  0
   15.5721    2.3886   -3.8101 H   0  0  0  0  0  0  0  0  0  0  0  0
   15.8725    3.8306   -2.2084 C   0  0  0  0  0  0  0  0  0  0  0  0
   16.1433    4.6221   -2.9160 H   0  0  0  0  0  0  0  0  0  0  0  0
   14.8049    3.9374   -1.9726 H   0  0  0  0  0  0  0  0  0  0  0  0
   16.6946    4.0117   -0.9236 C   0  0  0  0  0  0  0  0  0  0  0  0
   16.4398    3.2322   -0.1967 H   0  0  0  0  0  0  0  0  0  0  0  0
   16.4828    4.9874   -0.4722 H   0  0  0  0  0  0  0  0  0  0  0  0
   17.7674    3.9575   -1.1402 H   0  0  0  0  0  0  0  0  0  0  0  0
   15.3161   -0.8433   -1.5036 C   0  0  0  0  0  0  0  0  0  0  0  0
   14.8890   -0.4914   -0.5712 H   0  0  0  0  0  0  0  0  0  0  0  0
   13.3145   -3.0336   -0.5972 C   0  0  0  0  0  0  0  0  0  0  0  0
   12.4562   -3.1275   -1.4706 O   0  0  0  0  0  0  0  0  0  0  0  0
   13.0321   -2.6819    0.7103 N   0  0  0  0  0  0  0  0  0  0  0  0
   11.7280   -2.3148    1.2722 C   0  0  0  0  0  0  0  0  0  0  0  0
   10.9233   -2.4754    0.5437 H   0  0  0  0  0  0  0  0  0  0  0  0
   11.5063   -2.9206    2.1600 H   0  0  0  0  0  0  0  0  0  0  0  0
   11.7176   -1.2558    1.5589 H   0  0  0  0  0  0  0  0  0  0  0  0
   14.2422   -2.6206    1.3680 C   0  0  0  0  0  0  0  0  0  0  0  0
   14.4134   -2.3004    2.6780 N   0  0  0  0  0  0  0  0  0  0  0  0
   15.3484   -2.3293    3.0785 H   0  0  0  0  0  0  0  0  0  0  0  0
   13.6001   -2.1228    3.2630 H   0  0  0  0  0  0  0  0  0  0  0  0
   15.2528   -2.9050    0.6136 N   0  0  0  0  0  4  0  0  0  0  0  0
   16.2159   -2.9753    0.9553 H   0  0  0  0  0  0  0  0  0  0  0  0
   14.3212   -5.5492   -1.7651 C   0  0  0  0  0  0  0  0  0  0  0  0
   13.3651   -5.1693   -2.1127 H   0  0  0  0  0  0  0  0  0  0  0  0
   14.6496   -6.8988   -1.9696 C   0  0  0  0  0  0  0  0  0  0  0  0
   13.9589   -7.5606   -2.4846 H   0  0  0  0  0  0  0  0  0  0  0  0
  1  2  1  0
  2  3  2  0
  3  4  1  0
  3  5  1  0
  5  6  1  0
  5  7  2  0
  7  8  1  0
  8  9  1  0
  9 10  2  0
 10 11  1  0
 10 12  1  0
 12 13  1  0
 12 14  2  0
 14 15  1  0
 14 16  1  0
 16 17  1  0
 17 18  1  0
 18 19  1  0
 18 20  1  0
 18 21  1  0
 21 22  1  0
 21 23  1  0
 21 24  1  0
 24 25  1  0
 24 26  1  0
 24 27  1  0
 16 28  2  0
 28 29  1  0
  8 30  1  0
 30 31  2  0
 30 32  1  0
 32 33  1  0
 33 34  1  0
 33 35  1  0
 33 36  1  0
 32 37  1  0
 37 38  1  0
 38 39  1  0
 38 40  1  0
 37 41  2  0
 41 42  1  0
  7 43  1  0
 43 44  1  0
 43 45  2  0
 45 46  1  0
 45  2  1  0
 41  8  1  0
 28  9  1  0
M  CHG  1  41   1
M  END
>  <score>  (400) 
5.12913

$$$$

     RDKit          3D

 47 50  0  0  0  0  0  0  0  0999 V2000
    8.7683  -12.1715   -3.2886 H   0  0  0  0  0  0  0  0  0  0  0  0
    9.4982  -11.3992   -3.0595 C   0  0  0  0  0  0  0  0  0  0  0  0
   10.7955  -11.7331   -3.0894 N   0  0  0  0  0  0  0  0  0  0  0  0
   11.7117  -10.7880   -2.8003 C   0  0  0  0  0  0  0  0  0  0  0  0
   12.7689  -11.0350   -2.8644 H   0  0  0  0  0  0  0  0  0  0  0  0
   11.3786   -9.4747   -2.4693 C   0  0  0  0  0  0  0  0  0  0  0  0
   12.4494   -8.5864   -2.1345 C   0  0  0  0  0  0  0  0  0  0  0  0
   13.4097   -7.8986   -1.8450 C   0  0  0  0  0  0  0  0  0  0  0  0
   14.5031   -7.0428   -1.4958 C   0  0  0  0  0  0  0  0  0  0  0  0
   15.8042   -7.5101   -1.2563 C   0  0  0  0  0  0  0  0  0  0  0  0
   16.0148   -8.5704   -1.3333 H   0  0  0  0  0  0  0  0  0  0  0  0
   16.8250   -6.6184   -0.8802 C   0  0  0  0  0  0  0  0  0  0  0  0
   17.8258   -6.9858   -0.6587 H   0  0  0  0  0  0  0  0  0  0  0  0
   16.5414   -5.2548   -0.7271 C   0  0  0  0  0  0  0  0  0  0  0  0
   17.3266   -4.5750   -0.3991 H   0  0  0  0  0  0  0  0  0  0  0  0
   15.2381   -4.7779   -0.9460 C   0  0  0  0  0  0  0  0  0  0  0  0
   14.8704   -3.3283   -0.6730 C   0  0  0  0  0  0  0  0  0  0  0  0
   15.3939   -2.3492   -1.7108 C   0  0  0  0  0  0  0  0  0  0  0  0
   15.9192   -2.7595   -2.9508 C   0  0  0  0  0  0  0  0  0  0  0  0
   15.9629   -3.8165   -3.2033 H   0  0  0  0  0  0  0  0  0  0  0  0
   16.3930   -1.8082   -3.8655 C   0  0  0  0  0  0  0  0  0  0  0  0
   16.8135   -2.1188   -4.8160 H   0  0  0  0  0  0  0  0  0  0  0  0
   16.3361   -0.4460   -3.5552 C   0  0  0  0  0  0  0  0  0  0  0  0
   16.7197    0.2908   -4.2534 H   0  0  0  0  0  0  0  0  0  0  0  0
   15.7845   -0.0307   -2.3422 C   0  0  0  0  0  0  0  0  0  0  0  0
   15.7278    1.0231   -2.0928 H   0  0  0  0  0  0  0  0  0  0  0  0
   15.3112   -0.9761   -1.4339 C   0  0  0  0  0  0  0  0  0  0  0  0
   14.8791   -0.6498   -0.4922 H   0  0  0  0  0  0  0  0  0  0  0  0
   13.3520   -3.1318   -0.4797 C   0  0  0  0  0  0  0  0  0  0  0  0
   12.4667   -3.3803   -1.2943 O   0  0  0  0  0  0  0  0  0  0  0  0
   13.1036   -2.6573    0.7925 N   0  0  0  0  0  0  0  0  0  0  0  0
   11.8031   -2.2863    1.3502 C   0  0  0  0  0  0  0  0  0  0  0  0
   11.5852   -2.8667    2.2534 H   0  0  0  0  0  0  0  0  0  0  0  0
   11.7929   -1.2233    1.6110 H   0  0  0  0  0  0  0  0  0  0  0  0
   10.9972   -2.4681    0.6293 H   0  0  0  0  0  0  0  0  0  0  0  0
   14.3212   -2.5566    1.4253 C   0  0  0  0  0  0  0  0  0  0  0  0
   14.5290   -2.1193    2.6963 N   0  0  0  0  0  0  0  0  0  0  0  0
   15.4524   -2.2824    3.0912 H   0  0  0  0  0  0  0  0  0  0  0  0
   13.7277   -2.0741    3.3223 H   0  0  0  0  0  0  0  0  0  0  0  0
   15.3078   -2.9425    0.6854 N   0  0  0  0  0  4  0  0  0  0  0  0
   16.2792   -2.9608    1.0024 H   0  0  0  0  0  0  0  0  0  0  0  0
   14.2441   -5.6842   -1.3474 C   0  0  0  0  0  0  0  0  0  0  0  0
   13.2321   -5.3316   -1.5048 H   0  0  0  0  0  0  0  0  0  0  0  0
   10.0232   -9.1112   -2.4539 C   0  0  0  0  0  0  0  0  0  0  0  0
    9.6793   -8.1060   -2.2076 H   0  0  0  0  0  0  0  0  0  0  0  0
    9.0786  -10.1007   -2.7404 C   0  0  0  0  0  0  0  0  0  0  0  0
    8.0228   -9.8511   -2.7304 H   0  0  0  0  0  0  0  0  0  0  0  0
  1  2  1  0
  2  3  2  0
  3  4  1  0
  4  5  1  0
  4  6  2  0
  6  7  1  0
  7  8  3  0
  8  9  1  0
  9 10  2  0
 10 11  1  0
 10 12  1  0
 12 13  1  0
 12 14  2  0
 14 15  1  0
 14 16  1  0
 16 17  1  0
 17 18  1  0
 18 19  2  0
 19 20  1  0
 19 21  1  0
 21 22  1  0
 21 23  2  0
 23 24  1  0
 23 25  1  0
 25 26  1  0
 25 27  2  0
 27 28  1  0
 17 29  1  0
 29 30  2  0
 29 31  1  0
 31 32  1  0
 32 33  1  0
 32 34  1  0
 32 35  1  0
 31 36  1  0
 36 37  1  0
 37 38  1  0
 37 39  1  0
 36 40  2  0
 40 41  1  0
 16 42  2  0
 42 43  1  0
  6 44  1  0
 44 45  1  0
 44 46  2  0
 46 47  1  0
 46  2  1  0
 42  9  1  0
 40 17  1  0
 27 18  1  0
M  CHG  1  40   1
M  END
>  <score>  (401) 
5.12851

$$$$

     RDKit          3D

 41 43  0  0  0  0  0  0  0  0999 V2000
   16.1292   -8.4922   -1.6105 H   0  0  0  0  0  0  0  0  0  0  0  0
   15.8548   -7.4495   -1.4676 C   0  0  0  0  0  0  0  0  0  0  0  0
   16.7252   -6.5905   -0.7954 C   0  0  0  0  0  0  0  0  0  0  0  0
   17.6779   -6.9542   -0.4215 H   0  0  0  0  0  0  0  0  0  0  0  0
   16.3802   -5.2475   -0.6058 C   0  0  0  0  0  0  0  0  0  0  0  0
   17.0716   -4.6018   -0.0743 H   0  0  0  0  0  0  0  0  0  0  0  0
   15.1596   -4.7244   -1.0704 C   0  0  0  0  0  0  0  0  0  0  0  0
   14.8039   -3.2506   -0.7880 C   0  0  0  0  0  0  0  0  0  0  0  0
   15.3877   -2.2427   -1.7864 C   0  0  0  0  0  0  0  0  0  0  0  0
   15.9449   -2.6437   -3.0134 C   0  0  0  0  0  0  0  0  0  0  0  0
   16.0096   -3.6967   -3.2760 H   0  0  0  0  0  0  0  0  0  0  0  0
   16.4238   -1.6932   -3.9212 C   0  0  0  0  0  0  0  0  0  0  0  0
   16.8599   -2.0075   -4.8629 H   0  0  0  0  0  0  0  0  0  0  0  0
   16.3457   -0.3311   -3.6306 C   0  0  0  0  0  0  0  0  0  0  0  0
   16.7094    0.3887   -4.3620 H   0  0  0  0  0  0  0  0  0  0  0  0
   15.7986    0.1135   -2.4164 C   0  0  0  0  0  0  0  0  0  0  0  0
   15.7264    1.5617   -2.1167 C   0  0  0  0  0  0  0  0  0  0  0  0
   16.1271    2.3985   -2.9264 O   0  0  0  0  0  0  0  0  0  0  0  0
   15.1456    2.0841   -0.8117 C   0  0  0  0  0  0  0  0  0  0  0  0
   14.1053    1.7708   -0.7136 H   0  0  0  0  0  0  0  0  0  0  0  0
   15.1816    3.1762   -0.7745 H   0  0  0  0  0  0  0  0  0  0  0  0
   15.7143    1.6916    0.0325 H   0  0  0  0  0  0  0  0  0  0  0  0
   15.3241   -0.8586   -1.5054 C   0  0  0  0  0  0  0  0  0  0  0  0
   14.8956   -0.5470   -0.5561 H   0  0  0  0  0  0  0  0  0  0  0  0
   13.2873   -3.0212   -0.6126 C   0  0  0  0  0  0  0  0  0  0  0  0
   12.4191   -3.0743   -1.4826 O   0  0  0  0  0  0  0  0  0  0  0  0
   13.0178   -2.6659    0.6975 N   0  0  0  0  0  0  0  0  0  0  0  0
   11.7189   -2.3125    1.2624 C   0  0  0  0  0  0  0  0  0  0  0  0
   11.5005   -2.9207    2.1452 H   0  0  0  0  0  0  0  0  0  0  0  0
   11.6917   -1.2590    1.5585 H   0  0  0  0  0  0  0  0  0  0  0  0
   10.9159   -2.4775    0.5369 H   0  0  0  0  0  0  0  0  0  0  0  0
   14.2227   -2.6317    1.3674 C   0  0  0  0  0  0  0  0  0  0  0  0
   14.3876   -2.3418    2.6911 N   0  0  0  0  0  0  0  0  0  0  0  0
   13.5789   -2.1268    3.2710 H   0  0  0  0  0  0  0  0  0  0  0  0
   15.3238   -2.3603    3.1004 H   0  0  0  0  0  0  0  0  0  0  0  0
   15.2169   -2.9049    0.5883 N   0  0  0  0  0  4  0  0  0  0  0  0
   16.1928   -2.8905    0.8919 H   0  0  0  0  0  0  0  0  0  0  0  0
   14.2973   -5.6026   -1.7691 C   0  0  0  0  0  0  0  0  0  0  0  0
   13.3520   -5.2554   -2.1766 H   0  0  0  0  0  0  0  0  0  0  0  0
   14.6427   -6.9542   -1.9592 C   0  0  0  0  0  0  0  0  0  0  0  0
   13.9733   -7.6265   -2.4894 H   0  0  0  0  0  0  0  0  0  0  0  0
  1  2  1  0
  2  3  2  0
  3  4  1  0
  3  5  1  0
  5  6  1  0
  5  7  2  0
  7  8  1  0
  8  9  1  0
  9 10  2  0
 10 11  1  0
 10 12  1  0
 12 13  1  0
 12 14  2  0
 14 15  1  0
 14 16  1  0
 16 17  1  0
 17 18  2  0
 17 19  1  0
 19 20  1  0
 19 21  1  0
 19 22  1  0
 16 23  2  0
 23 24  1  0
  8 25  1  0
 25 26  2  0
 25 27  1  0
 27 28  1  0
 28 29  1  0
 28 30  1  0
 28 31  1  0
 27 32  1  0
 32 33  1  0
 33 34  1  0
 33 35  1  0
 32 36  2  0
 36 37  1  0
  7 38  1  0
 38 39  1  0
 38 40  2  0
 40 41  1  0
 40  2  1  0
 36  8  1  0
 23  9  1  0
M  CHG  1  36   1
M  END
>  <score>  (402) 
5.12797

$$$$

     RDKit          3D

 44 46  0  0  0  0  0  0  0  0999 V2000
   16.1210   -8.4858   -1.6115 H   0  0  0  0  0  0  0  0  0  0  0  0
   15.8535   -7.4400   -1.4726 C   0  0  0  0  0  0  0  0  0  0  0  0
   16.7292   -6.5821   -0.8030 C   0  0  0  0  0  0  0  0  0  0  0  0
   17.6722   -6.9564   -0.4166 H   0  0  0  0  0  0  0  0  0  0  0  0
   16.3919   -5.2374   -0.6112 C   0  0  0  0  0  0  0  0  0  0  0  0
   17.0674   -4.5872   -0.0636 H   0  0  0  0  0  0  0  0  0  0  0  0
   15.1746   -4.7134   -1.0764 C   0  0  0  0  0  0  0  0  0  0  0  0
   14.8156   -3.2489   -0.7861 C   0  0  0  0  0  0  0  0  0  0  0  0
   15.3892   -2.2378   -1.7787 C   0  0  0  0  0  0  0  0  0  0  0  0
   15.9421   -2.6419   -3.0042 C   0  0  0  0  0  0  0  0  0  0  0  0
   16.0012   -3.6957   -3.2552 H   0  0  0  0  0  0  0  0  0  0  0  0
   16.4206   -1.6968   -3.9183 C   0  0  0  0  0  0  0  0  0  0  0  0
   16.8549   -2.0074   -4.8619 H   0  0  0  0  0  0  0  0  0  0  0  0
   16.3474   -0.3351   -3.6308 C   0  0  0  0  0  0  0  0  0  0  0  0
   16.7169    0.3834   -4.3625 H   0  0  0  0  0  0  0  0  0  0  0  0
   15.7979    0.1079   -2.4152 C   0  0  0  0  0  0  0  0  0  0  0  0
   15.7300    1.5608   -2.1314 C   0  0  0  0  0  0  0  0  0  0  0  0
   16.0444    2.3777   -2.9890 O   0  0  0  0  0  0  0  0  0  0  0  0
   15.2308    2.1194   -0.7963 C   0  0  0  0  0  0  0  0  0  0  0  0
   15.6452    3.1200   -0.6389 H   0  0  0  0  0  0  0  0  0  0  0  0
   15.5961    1.4865    0.0119 H   0  0  0  0  0  0  0  0  0  0  0  0
   13.7009    2.2063   -0.7579 C   0  0  0  0  0  0  0  0  0  0  0  0
   13.2622    1.2134   -0.8884 H   0  0  0  0  0  0  0  0  0  0  0  0
   13.3278    2.8602   -1.5488 H   0  0  0  0  0  0  0  0  0  0  0  0
   13.3537    2.6153    0.1973 H   0  0  0  0  0  0  0  0  0  0  0  0
   15.3223   -0.8567   -1.5025 C   0  0  0  0  0  0  0  0  0  0  0  0
   14.8902   -0.5424   -0.5560 H   0  0  0  0  0  0  0  0  0  0  0  0
   13.3001   -3.0328   -0.6017 C   0  0  0  0  0  0  0  0  0  0  0  0
   12.4305   -3.0886   -1.4685 O   0  0  0  0  0  0  0  0  0  0  0  0
   13.0244   -2.6769    0.7027 N   0  0  0  0  0  0  0  0  0  0  0  0
   11.7194   -2.3133    1.2633 C   0  0  0  0  0  0  0  0  0  0  0  0
   11.6930   -1.2597    1.5550 H   0  0  0  0  0  0  0  0  0  0  0  0
   11.5049   -2.9137    2.1504 H   0  0  0  0  0  0  0  0  0  0  0  0
   10.9116   -2.4789    0.5428 H   0  0  0  0  0  0  0  0  0  0  0  0
   14.2269   -2.6279    1.3637 C   0  0  0  0  0  0  0  0  0  0  0  0
   14.3965   -2.3297    2.6850 N   0  0  0  0  0  0  0  0  0  0  0  0
   13.5822   -2.1271    3.2609 H   0  0  0  0  0  0  0  0  0  0  0  0
   15.3321   -2.3540    3.0908 H   0  0  0  0  0  0  0  0  0  0  0  0
   15.2214   -2.9004    0.5911 N   0  0  0  0  0  4  0  0  0  0  0  0
   16.1894   -2.9138    0.9066 H   0  0  0  0  0  0  0  0  0  0  0  0
   14.3041   -5.5870   -1.7679 C   0  0  0  0  0  0  0  0  0  0  0  0
   13.3534   -5.2325   -2.1563 H   0  0  0  0  0  0  0  0  0  0  0  0
   14.6430   -6.9386   -1.9617 C   0  0  0  0  0  0  0  0  0  0  0  0
   13.9723   -7.6123   -2.4879 H   0  0  0  0  0  0  0  0  0  0  0  0
  1  2  1  0
  2  3  2  0
  3  4  1  0
  3  5  1  0
  5  6  1  0
  5  7  2  0
  7  8  1  0
  8  9  1  0
  9 10  2  0
 10 11  1  0
 10 12  1  0
 12 13  1  0
 12 14  2  0
 14 15  1  0
 14 16  1  0
 16 17  1  0
 17 18  2  0
 17 19  1  0
 19 20  1  0
 19 21  1  0
 19 22  1  0
 22 23  1  0
 22 24  1  0
 22 25  1  0
 16 26  2  0
 26 27  1  0
  8 28  1  0
 28 29  2  0
 28 30  1  0
 30 31  1  0
 31 32  1  0
 31 33  1  0
 31 34  1  0
 30 35  1  0
 35 36  1  0
 36 37  1  0
 36 38  1  0
 35 39  2  0
 39 40  1  0
  7 41  1  0
 41 42  1  0
 41 43  2  0
 43 44  1  0
 43  2  1  0
 39  8  1  0
 26  9  1  0
M  CHG  1  39   1
M  END
>  <score>  (403) 
5.12567

$$$$

     RDKit          3D

 49 52  0  0  0  0  0  0  0  0999 V2000
   11.0629  -10.4283   -3.2401 H   0  0  0  0  0  0  0  0  0  0  0  0
   11.7015   -9.6159   -2.9079 C   0  0  0  0  0  0  0  0  0  0  0  0
   11.2399   -8.6710   -2.0689 N   0  0  0  0  0  0  0  0  0  0  0  0
   12.0947   -7.7016   -1.6695 C   0  0  0  0  0  0  0  0  0  0  0  0
   11.7143   -6.7254   -0.7877 O   0  0  0  0  0  0  0  0  0  0  0  0
   10.3442   -6.6824   -0.3877 C   0  0  0  0  0  0  0  0  0  0  0  0
   10.0315   -7.6093    0.1090 H   0  0  0  0  0  0  0  0  0  0  0  0
    9.7091   -6.5108   -1.2639 H   0  0  0  0  0  0  0  0  0  0  0  0
   10.2174   -5.8548    0.3227 H   0  0  0  0  0  0  0  0  0  0  0  0
   13.4311   -7.6782   -2.0872 C   0  0  0  0  0  0  0  0  0  0  0  0
   14.4358   -6.7358   -1.5884 C   0  0  0  0  0  0  0  0  0  0  0  0
   15.7211   -7.2288   -1.3203 C   0  0  0  0  0  0  0  0  0  0  0  0
   15.9354   -8.2818   -1.4868 H   0  0  0  0  0  0  0  0  0  0  0  0
   16.7192   -6.3881   -0.8344 C   0  0  0  0  0  0  0  0  0  0  0  0
   17.7125   -6.7817   -0.6300 H   0  0  0  0  0  0  0  0  0  0  0  0
   16.4347   -5.0400   -0.6096 C   0  0  0  0  0  0  0  0  0  0  0  0
   17.2137   -4.3907   -0.2261 H   0  0  0  0  0  0  0  0  0  0  0  0
   15.1608   -4.5122   -0.8791 C   0  0  0  0  0  0  0  0  0  0  0  0
   14.8831   -3.0363   -0.6149 C   0  0  0  0  0  0  0  0  0  0  0  0
   15.4599   -2.0849   -1.6621 C   0  0  0  0  0  0  0  0  0  0  0  0
   15.9718   -2.5557   -2.8846 C   0  0  0  0  0  0  0  0  0  0  0  0
   16.0045   -3.6240   -3.0727 H   0  0  0  0  0  0  0  0  0  0  0  0
   16.4266   -1.6635   -3.8653 C   0  0  0  0  0  0  0  0  0  0  0  0
   16.8132   -2.0439   -4.8048 H   0  0  0  0  0  0  0  0  0  0  0  0
   16.3747   -0.2857   -3.6435 C   0  0  0  0  0  0  0  0  0  0  0  0
   16.7246    0.4004   -4.4113 H   0  0  0  0  0  0  0  0  0  0  0  0
   15.8632    0.1996   -2.4370 C   0  0  0  0  0  0  0  0  0  0  0  0
   15.8130    1.2704   -2.2672 H   0  0  0  0  0  0  0  0  0  0  0  0
   15.4090   -0.6930   -1.4566 C   0  0  0  0  0  0  0  0  0  0  0  0
   15.0046   -0.2937   -0.5301 H   0  0  0  0  0  0  0  0  0  0  0  0
   13.3772   -2.7845   -0.4499 C   0  0  0  0  0  0  0  0  0  0  0  0
   12.5087   -2.8913   -1.3136 O   0  0  0  0  0  0  0  0  0  0  0  0
   13.1053   -2.4396    0.8545 N   0  0  0  0  0  0  0  0  0  0  0  0
   11.7711   -2.2296    1.4151 C   0  0  0  0  0  0  0  0  0  0  0  0
   11.0039   -2.4668    0.6689 H   0  0  0  0  0  0  0  0  0  0  0  0
   11.6352   -1.1863    1.7159 H   0  0  0  0  0  0  0  0  0  0  0  0
   11.6036   -2.8729    2.2855 H   0  0  0  0  0  0  0  0  0  0  0  0
   14.3051   -2.4520    1.5365 C   0  0  0  0  0  0  0  0  0  0  0  0
   14.4527   -2.2901    2.8834 N   0  0  0  0  0  0  0  0  0  0  0  0
   15.3920   -2.1762    3.2640 H   0  0  0  0  0  0  0  0  0  0  0  0
   13.6445   -2.0282    3.4450 H   0  0  0  0  0  0  0  0  0  0  0  0
   15.3111   -2.6941    0.7586 N   0  0  0  0  0  4  0  0  0  0  0  0
   16.2620   -2.8495    1.1016 H   0  0  0  0  0  0  0  0  0  0  0  0
   14.1632   -5.3793   -1.3785 C   0  0  0  0  0  0  0  0  0  0  0  0
   13.1712   -5.0088   -1.6209 H   0  0  0  0  0  0  0  0  0  0  0  0
   13.8880   -8.6620   -2.9329 C   0  0  0  0  0  0  0  0  0  0  0  0
   14.9418   -8.6281   -3.1592 H   0  0  0  0  0  0  0  0  0  0  0  0
   13.0121   -9.6341   -3.3772 C   0  0  0  0  0  0  0  0  0  0  0  0
   13.3474  -10.4052   -4.0612 H   0  0  0  0  0  0  0  0  0  0  0  0
  1  2  1  0
  2  3  2  0
  3  4  1  0
  4  5  1  0
  5  6  1  0
  6  7  1  0
  6  8  1  0
  6  9  1  0
  4 10  2  0
 10 11  1  0
 11 12  2  0
 12 13  1  0
 12 14  1  0
 14 15  1  0
 14 16  2  0
 16 17  1  0
 16 18  1  0
 18 19  1  0
 19 20  1  0
 20 21  2  0
 21 22  1  0
 21 23  1  0
 23 24  1  0
 23 25  2  0
 25 26  1  0
 25 27  1  0
 27 28  1  0
 27 29  2  0
 29 30  1  0
 19 31  1  0
 31 32  2  0
 31 33  1  0
 33 34  1  0
 34 35  1  0
 34 36  1  0
 34 37  1  0
 33 38  1  0
 38 39  1  0
 39 40  1  0
 39 41  1  0
 38 42  2  0
 42 43  1  0
 18 44  2  0
 44 45  1  0
 10 46  1  0
 46 47  1  0
 46 48  2  0
 48 49  1  0
 48  2  1  0
 44 11  1  0
 42 19  1  0
 29 20  1  0
M  CHG  1  42   1
M  END
>  <score>  (404) 
5.12421

$$$$

     RDKit          3D

 48 51  0  0  0  0  0  0  0  0999 V2000
   11.5986   -6.5153   -1.2084 H   0  0  0  0  0  0  0  0  0  0  0  0
   11.8670   -7.4506   -1.6989 C   0  0  0  0  0  0  0  0  0  0  0  0
   10.8750   -8.2861   -2.0699 N   0  0  0  0  0  0  0  0  0  0  0  0
   11.1997   -9.4325   -2.6876 C   0  0  0  0  0  0  0  0  0  0  0  0
   10.1354  -10.4230   -2.9914 C   0  0  0  0  0  0  0  0  0  0  0  0
   10.4367  -11.3977   -2.6052 H   0  0  0  0  0  0  0  0  0  0  0  0
    9.9569  -10.4994   -4.0630 H   0  0  0  0  0  0  0  0  0  0  0  0
    9.2099  -10.1296   -2.5014 H   0  0  0  0  0  0  0  0  0  0  0  0
   12.5185   -9.7815   -2.9535 C   0  0  0  0  0  0  0  0  0  0  0  0
   12.7389  -10.6949   -3.4898 H   0  0  0  0  0  0  0  0  0  0  0  0
   13.5490   -8.9620   -2.5283 C   0  0  0  0  0  0  0  0  0  0  0  0
   14.5790   -9.2539   -2.7107 H   0  0  0  0  0  0  0  0  0  0  0  0
   13.2271   -7.7519   -1.9003 C   0  0  0  0  0  0  0  0  0  0  0  0
   14.3035   -6.8383   -1.4724 C   0  0  0  0  0  0  0  0  0  0  0  0
   15.5879   -7.3451   -1.2423 C   0  0  0  0  0  0  0  0  0  0  0  0
   15.7619   -8.4097   -1.3578 H   0  0  0  0  0  0  0  0  0  0  0  0
   16.6366   -6.5089   -0.8498 C   0  0  0  0  0  0  0  0  0  0  0  0
   17.6215   -6.9229   -0.6580 H   0  0  0  0  0  0  0  0  0  0  0  0
   16.4146   -5.1376   -0.6930 C   0  0  0  0  0  0  0  0  0  0  0  0
   17.2369   -4.4873   -0.4002 H   0  0  0  0  0  0  0  0  0  0  0  0
   15.1301   -4.5981   -0.8824 C   0  0  0  0  0  0  0  0  0  0  0  0
   14.8558   -3.1116   -0.6296 C   0  0  0  0  0  0  0  0  0  0  0  0
   15.4285   -2.1615   -1.6780 C   0  0  0  0  0  0  0  0  0  0  0  0
   15.9451   -2.6189   -2.9031 C   0  0  0  0  0  0  0  0  0  0  0  0
   15.9727   -3.6830   -3.1131 H   0  0  0  0  0  0  0  0  0  0  0  0
   16.4167   -1.7154   -3.8672 C   0  0  0  0  0  0  0  0  0  0  0  0
   16.8156   -2.0744   -4.8101 H   0  0  0  0  0  0  0  0  0  0  0  0
   16.3720   -0.3391   -3.6256 C   0  0  0  0  0  0  0  0  0  0  0  0
   16.7433    0.3618   -4.3691 H   0  0  0  0  0  0  0  0  0  0  0  0
   15.8440    0.1336   -2.4215 C   0  0  0  0  0  0  0  0  0  0  0  0
   15.7934    1.2021   -2.2283 H   0  0  0  0  0  0  0  0  0  0  0  0
   15.3736   -0.7709   -1.4609 C   0  0  0  0  0  0  0  0  0  0  0  0
   14.9517   -0.3890   -0.5348 H   0  0  0  0  0  0  0  0  0  0  0  0
   13.3527   -2.8213   -0.4636 C   0  0  0  0  0  0  0  0  0  0  0  0
   12.4797   -2.9448   -1.3231 O   0  0  0  0  0  0  0  0  0  0  0  0
   13.0868   -2.4564    0.8384 N   0  0  0  0  0  0  0  0  0  0  0  0
   11.7573   -2.2228    1.4065 C   0  0  0  0  0  0  0  0  0  0  0  0
   11.6424   -1.1762    1.7079 H   0  0  0  0  0  0  0  0  0  0  0  0
   11.5840   -2.8639    2.2788 H   0  0  0  0  0  0  0  0  0  0  0  0
   10.9796   -2.4470    0.6654 H   0  0  0  0  0  0  0  0  0  0  0  0
   14.2934   -2.4603    1.5082 C   0  0  0  0  0  0  0  0  0  0  0  0
   14.4684   -2.2307    2.8406 N   0  0  0  0  0  0  0  0  0  0  0  0
   13.6630   -2.0525    3.4388 H   0  0  0  0  0  0  0  0  0  0  0  0
   15.4122   -2.2295    3.2247 H   0  0  0  0  0  0  0  0  0  0  0  0
   15.2920   -2.7495    0.7372 N   0  0  0  0  0  4  0  0  0  0  0  0
   16.2413   -2.8998    1.0843 H   0  0  0  0  0  0  0  0  0  0  0  0
   14.0845   -5.4631   -1.2802 C   0  0  0  0  0  0  0  0  0  0  0  0
   13.0881   -5.0656   -1.4488 H   0  0  0  0  0  0  0  0  0  0  0  0
  1  2  1  0
  2  3  2  0
  3  4  1  0
  4  5  1  0
  5  6  1  0
  5  7  1  0
  5  8  1  0
  4  9  2  0
  9 10  1  0
  9 11  1  0
 11 12  1  0
 11 13  2  0
 13 14  1  0
 14 15  2  0
 15 16  1  0
 15 17  1  0
 17 18  1  0
 17 19  2  0
 19 20  1  0
 19 21  1  0
 21 22  1  0
 22 23  1  0
 23 24  2  0
 24 25  1  0
 24 26  1  0
 26 27  1  0
 26 28  2  0
 28 29  1  0
 28 30  1  0
 30 31  1  0
 30 32  2  0
 32 33  1  0
 22 34  1  0
 34 35  2  0
 34 36  1  0
 36 37  1  0
 37 38  1  0
 37 39  1  0
 37 40  1  0
 36 41  1  0
 41 42  1  0
 42 43  1  0
 42 44  1  0
 41 45  2  0
 45 46  1  0
 21 47  2  0
 47 48  1  0
 13  2  1  0
 47 14  1  0
 45 22  1  0
 32 23  1  0
M  CHG  1  45   1
M  END
>  <score>  (405) 
5.11462

$$$$

     RDKit          3D

 47 50  0  0  0  0  0  0  0  0999 V2000
   14.0771   -9.3711    1.7640 H   0  0  0  0  0  0  0  0  0  0  0  0
   14.4588   -8.7147    1.1674 O   0  0  0  0  0  0  0  0  0  0  0  0
   14.0173   -8.9074   -0.1174 C   0  0  0  0  0  0  0  0  0  0  0  0
   13.0503   -9.8882   -0.3796 C   0  0  0  0  0  0  0  0  0  0  0  0
   12.6466  -10.4769    0.4394 H   0  0  0  0  0  0  0  0  0  0  0  0
   12.5788  -10.0848   -1.6904 C   0  0  0  0  0  0  0  0  0  0  0  0
   11.8183  -10.8329   -1.8971 H   0  0  0  0  0  0  0  0  0  0  0  0
   13.0969   -9.3187   -2.7402 C   0  0  0  0  0  0  0  0  0  0  0  0
   12.7713   -9.4991   -3.7655 H   0  0  0  0  0  0  0  0  0  0  0  0
   14.0596   -8.3443   -2.4776 C   0  0  0  0  0  0  0  0  0  0  0  0
   14.4341   -7.7352   -3.2928 H   0  0  0  0  0  0  0  0  0  0  0  0
   14.5220   -8.1283   -1.1695 C   0  0  0  0  0  0  0  0  0  0  0  0
   15.4556   -7.0343   -0.9108 C   0  0  0  0  0  0  0  0  0  0  0  0
   16.8298   -7.2403   -0.7246 C   0  0  0  0  0  0  0  0  0  0  0  0
   17.2400   -8.2450   -0.7844 H   0  0  0  0  0  0  0  0  0  0  0  0
   17.6642   -6.1511   -0.4391 C   0  0  0  0  0  0  0  0  0  0  0  0
   18.7248   -6.3145   -0.2653 H   0  0  0  0  0  0  0  0  0  0  0  0
   17.1326   -4.8569   -0.3438 C   0  0  0  0  0  0  0  0  0  0  0  0
   17.7913   -4.0150   -0.1375 H   0  0  0  0  0  0  0  0  0  0  0  0
   15.7541   -4.6472   -0.5154 C   0  0  0  0  0  0  0  0  0  0  0  0
   15.1470   -3.2631   -0.3843 C   0  0  0  0  0  0  0  0  0  0  0  0
   15.6089   -2.3097   -1.4665 C   0  0  0  0  0  0  0  0  0  0  0  0
   16.0562   -2.7859   -2.7096 C   0  0  0  0  0  0  0  0  0  0  0  0
   16.1129   -3.8565   -2.8893 H   0  0  0  0  0  0  0  0  0  0  0  0
   16.4060   -1.8886   -3.7209 C   0  0  0  0  0  0  0  0  0  0  0  0
   16.7423   -2.2596   -4.6793 H   0  0  0  0  0  0  0  0  0  0  0  0
   16.3072   -0.5127   -3.5078 C   0  0  0  0  0  0  0  0  0  0  0  0
   16.5867    0.1822   -4.2935 H   0  0  0  0  0  0  0  0  0  0  0  0
   15.8488   -0.0353   -2.2788 C   0  0  0  0  0  0  0  0  0  0  0  0
   15.7496    1.0294   -2.1087 H   0  0  0  0  0  0  0  0  0  0  0  0
   15.4971   -0.9272   -1.2655 C   0  0  0  0  0  0  0  0  0  0  0  0
   15.1150   -0.5511   -0.3189 H   0  0  0  0  0  0  0  0  0  0  0  0
   13.6083   -3.2540   -0.3432 C   0  0  0  0  0  0  0  0  0  0  0  0
   12.8424   -3.5962   -1.2432 O   0  0  0  0  0  0  0  0  0  0  0  0
   13.1759   -2.7747    0.8760 N   0  0  0  0  0  0  0  0  0  0  0  0
   11.7905   -2.5047    1.2692 C   0  0  0  0  0  0  0  0  0  0  0  0
   11.1017   -2.7217    0.4421 H   0  0  0  0  0  0  0  0  0  0  0  0
   11.4998   -3.1264    2.1228 H   0  0  0  0  0  0  0  0  0  0  0  0
   11.6548   -1.4507    1.5407 H   0  0  0  0  0  0  0  0  0  0  0  0
   14.3041   -2.5762    1.6406 C   0  0  0  0  0  0  0  0  0  0  0  0
   14.3637   -2.2519    2.9602 N   0  0  0  0  0  0  0  0  0  0  0  0
   15.2863   -2.1368    3.3802 H   0  0  0  0  0  0  0  0  0  0  0  0
   13.5397   -1.8771    3.4264 H   0  0  0  0  0  0  0  0  0  0  0  0
   15.3944   -2.7662    0.9799 N   0  0  0  0  0  4  0  0  0  0  0  0
   16.3080   -2.7913    1.4273 H   0  0  0  0  0  0  0  0  0  0  0  0
   14.9350   -5.7443   -0.8052 C   0  0  0  0  0  0  0  0  0  0  0  0
   13.8666   -5.5996   -0.9429 H   0  0  0  0  0  0  0  0  0  0  0  0
  1  2  1  0
  2  3  1  0
  3  4  2  0
  4  5  1  0
  4  6  1  0
  6  7  1  0
  6  8  2  0
  8  9  1  0
  8 10  1  0
 10 11  1  0
 10 12  2  0
 12 13  1  0
 13 14  2  0
 14 15  1  0
 14 16  1  0
 16 17  1  0
 16 18  2  0
 18 19  1  0
 18 20  1  0
 20 21  1  0
 21 22  1  0
 22 23  2  0
 23 24  1  0
 23 25  1  0
 25 26  1  0
 25 27  2  0
 27 28  1  0
 27 29  1  0
 29 30  1  0
 29 31  2  0
 31 32  1  0
 21 33  1  0
 33 34  2  0
 33 35  1  0
 35 36  1  0
 36 37  1  0
 36 38  1  0
 36 39  1  0
 35 40  1  0
 40 41  1  0
 41 42  1  0
 41 43  1  0
 40 44  2  0
 44 45  1  0
 20 46  2  0
 46 47  1  0
 12  3  1  0
 46 13  1  0
 44 21  1  0
 31 22  1  0
M  CHG  1  44   1
M  END
>  <score>  (406) 
5.11409

$$$$

     RDKit          3D

 47 49  0  0  0  0  0  0  0  0999 V2000
   16.1106   -8.4226   -1.6893 H   0  0  0  0  0  0  0  0  0  0  0  0
   15.8805   -7.3737   -1.5193 C   0  0  0  0  0  0  0  0  0  0  0  0
   16.7831   -6.5588   -0.8273 C   0  0  0  0  0  0  0  0  0  0  0  0
   17.7199   -6.9668   -0.4597 H   0  0  0  0  0  0  0  0  0  0  0  0
   16.4768   -5.2144   -0.5883 C   0  0  0  0  0  0  0  0  0  0  0  0
   17.1771   -4.5927   -0.0382 H   0  0  0  0  0  0  0  0  0  0  0  0
   15.2638   -4.6623   -1.0272 C   0  0  0  0  0  0  0  0  0  0  0  0
   14.9017   -3.2138   -0.7166 C   0  0  0  0  0  0  0  0  0  0  0  0
   15.4041   -2.2163   -1.7511 C   0  0  0  0  0  0  0  0  0  0  0  0
   15.9439   -2.6223   -2.9869 C   0  0  0  0  0  0  0  0  0  0  0  0
   16.0007   -3.6774   -3.2327 H   0  0  0  0  0  0  0  0  0  0  0  0
   16.4177   -1.6814   -3.9093 C   0  0  0  0  0  0  0  0  0  0  0  0
   16.8286   -1.9927   -4.8646 H   0  0  0  0  0  0  0  0  0  0  0  0
   16.3582   -0.3219   -3.6000 C   0  0  0  0  0  0  0  0  0  0  0  0
   16.7348    0.4317   -4.2799 H   0  0  0  0  0  0  0  0  0  0  0  0
   15.8020    0.1008   -2.4026 C   0  0  0  0  0  0  0  0  0  0  0  0
   15.7565    1.4614   -2.1616 N   0  0  0  0  0  0  0  0  0  0  0  0
   16.0672    2.0752   -2.9107 H   0  0  0  0  0  0  0  0  0  0  0  0
   15.0586    2.0575   -1.0206 C   0  0  0  0  0  0  0  0  0  0  0  0
   15.4105    3.0831   -0.8833 H   0  0  0  0  0  0  0  0  0  0  0  0
   15.2868    1.5053   -0.1026 H   0  0  0  0  0  0  0  0  0  0  0  0
   13.5621    2.0818   -1.3122 C   0  0  0  0  0  0  0  0  0  0  0  0
   13.4102    2.4427   -2.3322 H   0  0  0  0  0  0  0  0  0  0  0  0
   13.1466    1.0697   -1.2597 H   0  0  0  0  0  0  0  0  0  0  0  0
   12.8701    3.0313   -0.3349 C   0  0  0  0  0  0  0  0  0  0  0  0
   11.8010    3.0942   -0.5475 H   0  0  0  0  0  0  0  0  0  0  0  0
   13.3103    4.0302   -0.4306 H   0  0  0  0  0  0  0  0  0  0  0  0
   12.9969    2.6867    0.6923 H   0  0  0  0  0  0  0  0  0  0  0  0
   15.3163   -0.8360   -1.4908 C   0  0  0  0  0  0  0  0  0  0  0  0
   14.8874   -0.4686   -0.5641 H   0  0  0  0  0  0  0  0  0  0  0  0
   13.3859   -3.0483   -0.4791 C   0  0  0  0  0  0  0  0  0  0  0  0
   12.4761   -3.2381   -1.2858 O   0  0  0  0  0  0  0  0  0  0  0  0
   13.1529   -2.7067    0.8371 N   0  0  0  0  0  0  0  0  0  0  0  0
   11.8736   -2.2889    1.4184 C   0  0  0  0  0  0  0  0  0  0  0  0
   11.7263   -1.2096    1.3004 H   0  0  0  0  0  0  0  0  0  0  0  0
   11.8259   -2.5195    2.4894 H   0  0  0  0  0  0  0  0  0  0  0  0
   11.0424   -2.8037    0.9221 H   0  0  0  0  0  0  0  0  0  0  0  0
   14.3866   -2.5745    1.4308 C   0  0  0  0  0  0  0  0  0  0  0  0
   14.5878   -2.2135    2.7200 N   0  0  0  0  0  0  0  0  0  0  0  0
   13.8029   -2.3345    3.3601 H   0  0  0  0  0  0  0  0  0  0  0  0
   15.5361   -2.3476    3.0655 H   0  0  0  0  0  0  0  0  0  0  0  0
   15.3714   -2.8382    0.6360 N   0  0  0  0  0  4  0  0  0  0  0  0
   16.3492   -2.8667    0.9289 H   0  0  0  0  0  0  0  0  0  0  0  0
   14.3751   -5.4869   -1.7415 C   0  0  0  0  0  0  0  0  0  0  0  0
   13.4324   -5.0843   -2.0972 H   0  0  0  0  0  0  0  0  0  0  0  0
   14.6767   -6.8332   -1.9827 C   0  0  0  0  0  0  0  0  0  0  0  0
   13.9689   -7.4596   -2.5184 H   0  0  0  0  0  0  0  0  0  0  0  0
  1  2  1  0
  2  3  2  0
  3  4  1  0
  3  5  1  0
  5  6  1  0
  5  7  2  0
  7  8  1  0
  8  9  1  0
  9 10  2  0
 10 11  1  0
 10 12  1  0
 12 13  1  0
 12 14  2  0
 14 15  1  0
 14 16  1  0
 16 17  1  0
 17 18  1  0
 17 19  1  0
 19 20  1  0
 19 21  1  0
 19 22  1  0
 22 23  1  0
 22 24  1  0
 22 25  1  0
 25 26  1  0
 25 27  1  0
 25 28  1  0
 16 29  2  0
 29 30  1  0
  8 31  1  0
 31 32  2  0
 31 33  1  0
 33 34  1  0
 34 35  1  0
 34 36  1  0
 34 37  1  0
 33 38  1  0
 38 39  1  0
 39 40  1  0
 39 41  1  0
 38 42  2  0
 42 43  1  0
  7 44  1  0
 44 45  1  0
 44 46  2  0
 46 47  1  0
 46  2  1  0
 42  8  1  0
 29  9  1  0
M  CHG  1  42   1
M  END
>  <score>  (407) 
5.11342

$$$$

     RDKit          3D

 44 47  0  0  0  0  0  0  0  0999 V2000
   10.5682   -8.8528   -2.5167 H   0  0  0  0  0  0  0  0  0  0  0  0
   11.5444   -8.7504   -2.0542 C   0  0  0  0  0  0  0  0  0  0  0  0
   12.3452   -9.7407   -1.5471 C   0  0  0  0  0  0  0  0  0  0  0  0
   12.1556  -10.8037   -1.4895 H   0  0  0  0  0  0  0  0  0  0  0  0
   13.5360   -9.1057   -1.0389 C   0  0  0  0  0  0  0  0  0  0  0  0
   14.4731   -9.7338   -0.5787 O   0  0  0  0  0  0  0  0  0  0  0  0
   13.4294   -7.7433   -1.1922 N   0  0  0  0  0  0  0  0  0  0  0  0
   14.4479   -6.8136   -1.0152 C   0  0  0  0  0  0  0  0  0  0  0  0
   15.7690   -7.2401   -0.9029 C   0  0  0  0  0  0  0  0  0  0  0  0
   15.9658   -8.3027   -0.8995 H   0  0  0  0  0  0  0  0  0  0  0  0
   16.8163   -6.3203   -0.8032 C   0  0  0  0  0  0  0  0  0  0  0  0
   17.8386   -6.6734   -0.6902 H   0  0  0  0  0  0  0  0  0  0  0  0
   16.5302   -4.9489   -0.8081 C   0  0  0  0  0  0  0  0  0  0  0  0
   17.3380   -4.2281   -0.7028 H   0  0  0  0  0  0  0  0  0  0  0  0
   15.2010   -4.4959   -0.8641 C   0  0  0  0  0  0  0  0  0  0  0  0
   14.8880   -3.0164   -0.6554 C   0  0  0  0  0  0  0  0  0  0  0  0
   15.4751   -2.0729   -1.6976 C   0  0  0  0  0  0  0  0  0  0  0  0
   15.9988   -2.5341   -2.9189 C   0  0  0  0  0  0  0  0  0  0  0  0
   16.0417   -3.5985   -3.1308 H   0  0  0  0  0  0  0  0  0  0  0  0
   16.4586   -1.6264   -3.8827 C   0  0  0  0  0  0  0  0  0  0  0  0
   16.8550   -1.9770   -4.8292 H   0  0  0  0  0  0  0  0  0  0  0  0
   16.3994   -0.2514   -3.6388 C   0  0  0  0  0  0  0  0  0  0  0  0
   16.7439    0.4591   -4.3838 H   0  0  0  0  0  0  0  0  0  0  0  0
   15.8903    0.2166   -2.4256 C   0  0  0  0  0  0  0  0  0  0  0  0
   15.8349    1.2796   -2.2163 H   0  0  0  0  0  0  0  0  0  0  0  0
   15.4319   -0.6882   -1.4655 C   0  0  0  0  0  0  0  0  0  0  0  0
   15.0257   -0.3262   -0.5246 H   0  0  0  0  0  0  0  0  0  0  0  0
   13.3770   -2.7501   -0.4877 C   0  0  0  0  0  0  0  0  0  0  0  0
   12.5033   -2.8516   -1.3449 O   0  0  0  0  0  0  0  0  0  0  0  0
   13.1175   -2.4193    0.8287 N   0  0  0  0  0  0  0  0  0  0  0  0
   11.8096   -2.2183    1.4515 C   0  0  0  0  0  0  0  0  0  0  0  0
   11.7041   -1.1726    1.7618 H   0  0  0  0  0  0  0  0  0  0  0  0
   11.7014   -2.8603    2.3360 H   0  0  0  0  0  0  0  0  0  0  0  0
   10.9958   -2.4570    0.7555 H   0  0  0  0  0  0  0  0  0  0  0  0
   14.3215   -2.4423    1.4911 C   0  0  0  0  0  0  0  0  0  0  0  0
   14.4770   -2.2975    2.8362 N   0  0  0  0  0  0  0  0  0  0  0  0
   13.6825   -1.9611    3.3789 H   0  0  0  0  0  0  0  0  0  0  0  0
   15.4229   -2.1732    3.1933 H   0  0  0  0  0  0  0  0  0  0  0  0
   15.3286   -2.6647    0.7117 N   0  0  0  0  0  4  0  0  0  0  0  0
   16.2554   -2.8925    1.0756 H   0  0  0  0  0  0  0  0  0  0  0  0
   14.1680   -5.4480   -0.9720 C   0  0  0  0  0  0  0  0  0  0  0  0
   13.1303   -5.1324   -0.9819 H   0  0  0  0  0  0  0  0  0  0  0  0
   12.2288   -7.4967   -1.8124 C   0  0  0  0  0  0  0  0  0  0  0  0
   11.8029   -6.3970   -2.1213 O   0  0  0  0  0  0  0  0  0  0  0  0
  1  2  1  0
  2  3  2  0
  3  4  1  0
  3  5  1  0
  5  6  2  0
  5  7  1  0
  7  8  1  0
  8  9  2  0
  9 10  1  0
  9 11  1  0
 11 12  1  0
 11 13  2  0
 13 14  1  0
 13 15  1  0
 15 16  1  0
 16 17  1  0
 17 18  2  0
 18 19  1  0
 18 20  1  0
 20 21  1  0
 20 22  2  0
 22 23  1  0
 22 24  1  0
 24 25  1  0
 24 26  2  0
 26 27  1  0
 16 28  1  0
 28 29  2  0
 28 30  1  0
 30 31  1  0
 31 32  1  0
 31 33  1  0
 31 34  1  0
 30 35  1  0
 35 36  1  0
 36 37  1  0
 36 38  1  0
 35 39  2  0
 39 40  1  0
 15 41  2  0
 41 42  1  0
  7 43  1  0
 43 44  2  0
 43  2  1  0
 41  8  1  0
 39 16  1  0
 26 17  1  0
M  CHG  1  39   1
M  END
>  <score>  (408) 
5.11257

$$$$

     RDKit          3D

 54 57  0  0  0  0  0  0  0  0999 V2000
   11.0752  -11.9088   -0.1966 H   0  0  0  0  0  0  0  0  0  0  0  0
   11.7613  -11.2503   -0.7225 C   0  0  0  0  0  0  0  0  0  0  0  0
   12.9514  -10.8366   -0.1126 C   0  0  0  0  0  0  0  0  0  0  0  0
   13.2067  -11.1955    0.8789 H   0  0  0  0  0  0  0  0  0  0  0  0
   13.7780   -9.9047   -0.7522 C   0  0  0  0  0  0  0  0  0  0  0  0
   14.6744   -9.5275   -0.2683 H   0  0  0  0  0  0  0  0  0  0  0  0
   13.4290   -9.3981   -2.0108 C   0  0  0  0  0  0  0  0  0  0  0  0
   14.2305   -8.2905   -2.6409 C   0  0  0  0  0  0  0  0  0  0  0  0
   15.2982   -8.4897   -2.5186 H   0  0  0  0  0  0  0  0  0  0  0  0
   14.0349   -8.2275   -3.7170 H   0  0  0  0  0  0  0  0  0  0  0  0
   13.8764   -7.0157   -1.9951 N   0  0  0  0  0  0  0  0  0  0  0  0
   14.8699   -6.2108   -1.4414 C   0  0  0  0  0  0  0  0  0  0  0  0
   16.1694   -6.6670   -1.1575 C   0  0  0  0  0  0  0  0  0  0  0  0
   16.4220   -7.7121   -1.3046 H   0  0  0  0  0  0  0  0  0  0  0  0
   17.1295   -5.7700   -0.6754 C   0  0  0  0  0  0  0  0  0  0  0  0
   18.1516   -6.0850   -0.4772 H   0  0  0  0  0  0  0  0  0  0  0  0
   16.7688   -4.4410   -0.4492 C   0  0  0  0  0  0  0  0  0  0  0  0
   17.5266   -3.7439   -0.1205 H   0  0  0  0  0  0  0  0  0  0  0  0
   15.4557   -3.9979   -0.6518 C   0  0  0  0  0  0  0  0  0  0  0  0
   15.0499   -2.5656   -0.4015 C   0  0  0  0  0  0  0  0  0  0  0  0
   15.6144   -1.6663   -1.4889 C   0  0  0  0  0  0  0  0  0  0  0  0
   16.0662   -2.2328   -2.6945 C   0  0  0  0  0  0  0  0  0  0  0  0
   16.0618   -3.3127   -2.8073 H   0  0  0  0  0  0  0  0  0  0  0  0
   16.5021   -1.4370   -3.7525 C   0  0  0  0  0  0  0  0  0  0  0  0
   16.8349   -1.9030   -4.6747 H   0  0  0  0  0  0  0  0  0  0  0  0
   16.4861   -0.0479   -3.6245 C   0  0  0  0  0  0  0  0  0  0  0  0
   16.8102    0.5704   -4.4561 H   0  0  0  0  0  0  0  0  0  0  0  0
   16.0470    0.5356   -2.4303 C   0  0  0  0  0  0  0  0  0  0  0  0
   16.0291    1.6165   -2.3350 H   0  0  0  0  0  0  0  0  0  0  0  0
   15.6123   -0.2698   -1.3684 C   0  0  0  0  0  0  0  0  0  0  0  0
   15.2544    0.1931   -0.4542 H   0  0  0  0  0  0  0  0  0  0  0  0
   13.5246   -2.4020   -0.2907 C   0  0  0  0  0  0  0  0  0  0  0  0
   12.6985   -2.5195   -1.1952 O   0  0  0  0  0  0  0  0  0  0  0  0
   13.1848   -2.1882    1.0278 N   0  0  0  0  0  0  0  0  0  0  0  0
   11.8268   -2.1850    1.5781 C   0  0  0  0  0  0  0  0  0  0  0  0
   11.0993   -2.5514    0.8451 H   0  0  0  0  0  0  0  0  0  0  0  0
   11.5319   -1.1689    1.8498 H   0  0  0  0  0  0  0  0  0  0  0  0
   11.7565   -2.8251    2.4659 H   0  0  0  0  0  0  0  0  0  0  0  0
   14.3624   -2.2224    1.7405 C   0  0  0  0  0  0  0  0  0  0  0  0
   14.4815   -2.2823    3.0899 N   0  0  0  0  0  0  0  0  0  0  0  0
   13.7305   -1.8735    3.6421 H   0  0  0  0  0  0  0  0  0  0  0  0
   15.4285   -2.2241    3.4559 H   0  0  0  0  0  0  0  0  0  0  0  0
   15.4170   -2.2526    0.9917 N   0  0  0  0  0  4  0  0  0  0  0  0
   16.3169   -2.5261    1.3816 H   0  0  0  0  0  0  0  0  0  0  0  0
   14.5307   -4.8920   -1.1731 C   0  0  0  0  0  0  0  0  0  0  0  0
   13.5197   -4.5724   -1.3965 H   0  0  0  0  0  0  0  0  0  0  0  0
   12.4567   -6.6900   -1.7184 C   0  0  0  0  0  0  0  0  0  0  0  0
   12.2101   -5.6661   -2.0278 H   0  0  0  0  0  0  0  0  0  0  0  0
   11.7783   -7.3762   -2.2358 H   0  0  0  0  0  0  0  0  0  0  0  0
   12.2808   -6.7796   -0.6420 H   0  0  0  0  0  0  0  0  0  0  0  0
   12.2731   -9.8681   -2.6454 C   0  0  0  0  0  0  0  0  0  0  0  0
   11.9885   -9.4680   -3.6132 H   0  0  0  0  0  0  0  0  0  0  0  0
   11.4444  -10.7943   -2.0081 C   0  0  0  0  0  0  0  0  0  0  0  0
   10.5432  -11.1244   -2.5161 H   0  0  0  0  0  0  0  0  0  0  0  0
  1  2  1  0
  2  3  2  0
  3  4  1  0
  3  5  1  0
  5  6  1  0
  5  7  2  0
  7  8  1  0
  8  9  1  0
  8 10  1  0
  8 11  1  0
 11 12  1  0
 12 13  2  0
 13 14  1  0
 13 15  1  0
 15 16  1  0
 15 17  2  0
 17 18  1  0
 17 19  1  0
 19 20  1  0
 20 21  1  0
 21 22  2  0
 22 23  1  0
 22 24  1  0
 24 25  1  0
 24 26  2  0
 26 27  1  0
 26 28  1  0
 28 29  1  0
 28 30  2  0
 30 31  1  0
 20 32  1  0
 32 33  2  0
 32 34  1  0
 34 35  1  0
 35 36  1  0
 35 37  1  0
 35 38  1  0
 34 39  1  0
 39 40  1  0
 40 41  1  0
 40 42  1  0
 39 43  2  0
 43 44  1  0
 19 45  2  0
 45 46  1  0
 11 47  1  0
 47 48  1  0
 47 49  1  0
 47 50  1  0
  7 51  1  0
 51 52  1  0
 51 53  2  0
 53 54  1  0
 53  2  1  0
 45 12  1  0
 43 20  1  0
 30 21  1  0
M  CHG  1  43   1
M  END
>  <score>  (409) 
5.10421

$$$$

     RDKit          3D

 49 52  0  0  0  0  0  0  0  0999 V2000
   10.7020  -10.3918   -2.8337 H   0  0  0  0  0  0  0  0  0  0  0  0
   11.4962   -9.6990   -2.5926 C   0  0  0  0  0  0  0  0  0  0  0  0
   11.1260   -8.4549   -2.0931 C   0  0  0  0  0  0  0  0  0  0  0  0
    9.7795   -8.2415   -1.9978 O   0  0  0  0  0  0  0  0  0  0  0  0
    9.3534   -6.9031   -1.7102 C   0  0  0  0  0  0  0  0  0  0  0  0
    8.2873   -6.8134   -1.9432 H   0  0  0  0  0  0  0  0  0  0  0  0
    9.4935   -6.6724   -0.6467 H   0  0  0  0  0  0  0  0  0  0  0  0
    9.8959   -6.1709   -2.3229 H   0  0  0  0  0  0  0  0  0  0  0  0
   12.0305   -7.5222   -1.7473 N   0  0  0  0  0  0  0  0  0  0  0  0
   13.3384   -7.8132   -1.8741 C   0  0  0  0  0  0  0  0  0  0  0  0
   14.3885   -6.8570   -1.4509 C   0  0  0  0  0  0  0  0  0  0  0  0
   15.6870   -7.3296   -1.1699 C   0  0  0  0  0  0  0  0  0  0  0  0
   15.9160   -8.3908   -1.2237 H   0  0  0  0  0  0  0  0  0  0  0  0
   16.7109   -6.4550   -0.8074 C   0  0  0  0  0  0  0  0  0  0  0  0
   17.7029   -6.8401   -0.5895 H   0  0  0  0  0  0  0  0  0  0  0  0
   16.4601   -5.0869   -0.7127 C   0  0  0  0  0  0  0  0  0  0  0  0
   17.2679   -4.4051   -0.4560 H   0  0  0  0  0  0  0  0  0  0  0  0
   15.1638   -4.5860   -0.9114 C   0  0  0  0  0  0  0  0  0  0  0  0
   14.8850   -3.1093   -0.6519 C   0  0  0  0  0  0  0  0  0  0  0  0
   15.4607   -2.1582   -1.6990 C   0  0  0  0  0  0  0  0  0  0  0  0
   15.9780   -2.6086   -2.9274 C   0  0  0  0  0  0  0  0  0  0  0  0
   16.0165   -3.6721   -3.1378 H   0  0  0  0  0  0  0  0  0  0  0  0
   16.4374   -1.7005   -3.8953 C   0  0  0  0  0  0  0  0  0  0  0  0
   16.8376   -2.0556   -4.8398 H   0  0  0  0  0  0  0  0  0  0  0  0
   16.3805   -0.3243   -3.6527 C   0  0  0  0  0  0  0  0  0  0  0  0
   16.7369    0.3815   -4.4002 H   0  0  0  0  0  0  0  0  0  0  0  0
   15.8634    0.1393   -2.4400 C   0  0  0  0  0  0  0  0  0  0  0  0
   15.8111    1.2066   -2.2411 H   0  0  0  0  0  0  0  0  0  0  0  0
   15.4085   -0.7703   -1.4765 C   0  0  0  0  0  0  0  0  0  0  0  0
   14.9996   -0.3936   -0.5438 H   0  0  0  0  0  0  0  0  0  0  0  0
   13.3904   -2.7915   -0.4380 C   0  0  0  0  0  0  0  0  0  0  0  0
   12.4940   -2.8897   -1.2686 O   0  0  0  0  0  0  0  0  0  0  0  0
   13.1723   -2.4119    0.8711 N   0  0  0  0  0  0  0  0  0  0  0  0
   11.8655   -2.2147    1.5016 C   0  0  0  0  0  0  0  0  0  0  0  0
   11.5611   -1.1607    1.4586 H   0  0  0  0  0  0  0  0  0  0  0  0
   11.8783   -2.5296    2.5508 H   0  0  0  0  0  0  0  0  0  0  0  0
   11.1037   -2.8153    0.9901 H   0  0  0  0  0  0  0  0  0  0  0  0
   14.3856   -2.5217    1.5035 C   0  0  0  0  0  0  0  0  0  0  0  0
   14.5775   -2.4189    2.8417 N   0  0  0  0  0  0  0  0  0  0  0  0
   15.5433   -2.3509    3.1319 H   0  0  0  0  0  0  0  0  0  0  0  0
   13.8747   -1.9186    3.3833 H   0  0  0  0  0  0  0  0  0  0  0  0
   15.3640   -2.8072    0.7075 N   0  0  0  0  0  4  0  0  0  0  0  0
   16.2984   -3.0606    1.0361 H   0  0  0  0  0  0  0  0  0  0  0  0
   14.1385   -5.4780   -1.2892 C   0  0  0  0  0  0  0  0  0  0  0  0
   13.1326   -5.0944   -1.4433 H   0  0  0  0  0  0  0  0  0  0  0  0
   13.7511   -9.0476   -2.4075 C   0  0  0  0  0  0  0  0  0  0  0  0
   14.8099   -9.2400   -2.5045 H   0  0  0  0  0  0  0  0  0  0  0  0
   12.8299  -10.0102   -2.7975 C   0  0  0  0  0  0  0  0  0  0  0  0
   13.1342  -10.9614   -3.2354 H   0  0  0  0  0  0  0  0  0  0  0  0
  1  2  1  0
  2  3  2  0
  3  4  1  0
  4  5  1  0
  5  6  1  0
  5  7  1  0
  5  8  1  0
  3  9  1  0
  9 10  2  0
 10 11  1  0
 11 12  2  0
 12 13  1  0
 12 14  1  0
 14 15  1  0
 14 16  2  0
 16 17  1  0
 16 18  1  0
 18 19  1  0
 19 20  1  0
 20 21  2  0
 21 22  1  0
 21 23  1  0
 23 24  1  0
 23 25  2  0
 25 26  1  0
 25 27  1  0
 27 28  1  0
 27 29  2  0
 29 30  1  0
 19 31  1  0
 31 32  2  0
 31 33  1  0
 33 34  1  0
 34 35  1  0
 34 36  1  0
 34 37  1  0
 33 38  1  0
 38 39  1  0
 39 40  1  0
 39 41  1  0
 38 42  2  0
 42 43  1  0
 18 44  2  0
 44 45  1  0
 10 46  1  0
 46 47  1  0
 46 48  2  0
 48 49  1  0
 48  2  1  0
 44 11  1  0
 42 19  1  0
 29 20  1  0
M  CHG  1  42   1
M  END
>  <score>  (410) 
5.10046

$$$$

     RDKit          3D

 41 43  0  0  0  0  0  0  0  0999 V2000
   16.1247   -8.4887   -1.6110 H   0  0  0  0  0  0  0  0  0  0  0  0
   15.8533   -7.4444   -1.4709 C   0  0  0  0  0  0  0  0  0  0  0  0
   16.7269   -6.5861   -0.8001 C   0  0  0  0  0  0  0  0  0  0  0  0
   17.6742   -6.9555   -0.4187 H   0  0  0  0  0  0  0  0  0  0  0  0
   16.3883   -5.2417   -0.6109 C   0  0  0  0  0  0  0  0  0  0  0  0
   17.0676   -4.5921   -0.0669 H   0  0  0  0  0  0  0  0  0  0  0  0
   15.1691   -4.7191   -1.0734 C   0  0  0  0  0  0  0  0  0  0  0  0
   14.8112   -3.2527   -0.7850 C   0  0  0  0  0  0  0  0  0  0  0  0
   15.3861   -2.2463   -1.7822 C   0  0  0  0  0  0  0  0  0  0  0  0
   15.9398   -2.6403   -3.0110 C   0  0  0  0  0  0  0  0  0  0  0  0
   16.0047   -3.6931   -3.2642 H   0  0  0  0  0  0  0  0  0  0  0  0
   16.4197   -1.6895   -3.9211 C   0  0  0  0  0  0  0  0  0  0  0  0
   16.8577   -2.0044   -4.8619 H   0  0  0  0  0  0  0  0  0  0  0  0
   16.3497   -0.3279   -3.6255 C   0  0  0  0  0  0  0  0  0  0  0  0
   16.7152    0.4011   -4.3449 H   0  0  0  0  0  0  0  0  0  0  0  0
   15.8014    0.0948   -2.4080 C   0  0  0  0  0  0  0  0  0  0  0  0
   15.7421    1.5672   -2.0700 C   0  0  0  0  0  0  0  0  0  0  0  0
   14.8697    1.7879   -1.4454 H   0  0  0  0  0  0  0  0  0  0  0  0
   15.6444    2.1737   -2.9768 H   0  0  0  0  0  0  0  0  0  0  0  0
   16.9636    1.9551   -1.3567 N   0  0  0  0  0  0  0  0  0  0  0  0
   17.7909    1.8050   -1.9363 H   0  0  0  0  0  0  0  0  0  0  0  0
   17.0437    1.4461   -0.4751 H   0  0  0  0  0  0  0  0  0  0  0  0
   15.3218   -0.8684   -1.5036 C   0  0  0  0  0  0  0  0  0  0  0  0
   14.9021   -0.5358   -0.5589 H   0  0  0  0  0  0  0  0  0  0  0  0
   13.2970   -3.0258   -0.6063 C   0  0  0  0  0  0  0  0  0  0  0  0
   12.4280   -3.0836   -1.4721 O   0  0  0  0  0  0  0  0  0  0  0  0
   13.0235   -2.6730    0.7009 N   0  0  0  0  0  0  0  0  0  0  0  0
   11.7202   -2.3135    1.2616 C   0  0  0  0  0  0  0  0  0  0  0  0
   11.5017   -2.9172    2.1442 H   0  0  0  0  0  0  0  0  0  0  0  0
   10.9144   -2.4738    0.5415 H   0  0  0  0  0  0  0  0  0  0  0  0
   11.6929   -1.2631    1.5597 H   0  0  0  0  0  0  0  0  0  0  0  0
   14.2225   -2.6298    1.3655 C   0  0  0  0  0  0  0  0  0  0  0  0
   14.3946   -2.3352    2.6875 N   0  0  0  0  0  0  0  0  0  0  0  0
   13.5807   -2.1273    3.2636 H   0  0  0  0  0  0  0  0  0  0  0  0
   15.3273   -2.3561    3.0944 H   0  0  0  0  0  0  0  0  0  0  0  0
   15.2192   -2.9045    0.5915 N   0  0  0  0  0  4  0  0  0  0  0  0
   16.1876   -2.9039    0.9003 H   0  0  0  0  0  0  0  0  0  0  0  0
   14.3010   -5.5930   -1.7676 C   0  0  0  0  0  0  0  0  0  0  0  0
   13.3524   -5.2417   -2.1644 H   0  0  0  0  0  0  0  0  0  0  0  0
   14.6426   -6.9442   -1.9611 C   0  0  0  0  0  0  0  0  0  0  0  0
   13.9733   -7.6188   -2.4884 H   0  0  0  0  0  0  0  0  0  0  0  0
  1  2  1  0
  2  3  2  0
  3  4  1  0
  3  5  1  0
  5  6  1  0
  5  7  2  0
  7  8  1  0
  8  9  1  0
  9 10  2  0
 10 11  1  0
 10 12  1  0
 12 13  1  0
 12 14  2  0
 14 15  1  0
 14 16  1  0
 16 17  1  0
 17 18  1  0
 17 19  1  0
 17 20  1  0
 20 21  1  0
 20 22  1  0
 16 23  2  0
 23 24  1  0
  8 25  1  0
 25 26  2  0
 25 27  1  0
 27 28  1  0
 28 29  1  0
 28 30  1  0
 28 31  1  0
 27 32  1  0
 32 33  1  0
 33 34  1  0
 33 35  1  0
 32 36  2  0
 36 37  1  0
  7 38  1  0
 38 39  1  0
 38 40  2  0
 40 41  1  0
 40  2  1  0
 36  8  1  0
 23  9  1  0
M  CHG  1  36   1
M  END
>  <score>  (411) 
5.09953

$$$$

     RDKit          3D

 47 49  0  0  0  0  0  0  0  0999 V2000
   16.1027   -8.4662   -1.6154 H   0  0  0  0  0  0  0  0  0  0  0  0
   15.8589   -7.4158   -1.4829 C   0  0  0  0  0  0  0  0  0  0  0  0
   16.7405   -6.5671   -0.8067 C   0  0  0  0  0  0  0  0  0  0  0  0
   17.6715   -6.9603   -0.4104 H   0  0  0  0  0  0  0  0  0  0  0  0
   16.4058   -5.2221   -0.6079 C   0  0  0  0  0  0  0  0  0  0  0  0
   17.0756   -4.5707   -0.0548 H   0  0  0  0  0  0  0  0  0  0  0  0
   15.1905   -4.6986   -1.0760 C   0  0  0  0  0  0  0  0  0  0  0  0
   14.8255   -3.2439   -0.7646 C   0  0  0  0  0  0  0  0  0  0  0  0
   15.3775   -2.2245   -1.7557 C   0  0  0  0  0  0  0  0  0  0  0  0
   15.9290   -2.6275   -2.9836 C   0  0  0  0  0  0  0  0  0  0  0  0
   15.9846   -3.6840   -3.2252 H   0  0  0  0  0  0  0  0  0  0  0  0
   16.4103   -1.6886   -3.9028 C   0  0  0  0  0  0  0  0  0  0  0  0
   16.8400   -1.9959   -4.8504 H   0  0  0  0  0  0  0  0  0  0  0  0
   16.3337   -0.3294   -3.6016 C   0  0  0  0  0  0  0  0  0  0  0  0
   16.7049    0.4221   -4.2889 H   0  0  0  0  0  0  0  0  0  0  0  0
   15.7873    0.1060   -2.3996 C   0  0  0  0  0  0  0  0  0  0  0  0
   15.7656    1.4623   -2.2184 O   0  0  0  0  0  0  0  0  0  0  0  0
   15.2268    1.9737   -0.9991 C   0  0  0  0  0  0  0  0  0  0  0  0
   14.1811    1.6615   -0.8903 H   0  0  0  0  0  0  0  0  0  0  0  0
   15.7942    1.5875   -0.1434 H   0  0  0  0  0  0  0  0  0  0  0  0
   15.3309    3.4988   -1.0791 C   0  0  0  0  0  0  0  0  0  0  0  0
   14.7680    3.8630   -1.9502 H   0  0  0  0  0  0  0  0  0  0  0  0
   16.3847    3.7934   -1.1897 H   0  0  0  0  0  0  0  0  0  0  0  0
   14.7870    4.0621    0.1122 O   0  0  0  0  0  0  0  0  0  0  0  0
   14.8492    5.4871    0.1393 C   0  0  0  0  0  0  0  0  0  0  0  0
   14.4321    5.7922    1.0995 H   0  0  0  0  0  0  0  0  0  0  0  0
   15.8774    5.8546    0.0606 H   0  0  0  0  0  0  0  0  0  0  0  0
   14.2694    5.9431   -0.6720 H   0  0  0  0  0  0  0  0  0  0  0  0
   15.3075   -0.8403   -1.4794 C   0  0  0  0  0  0  0  0  0  0  0  0
   14.8790   -0.4814   -0.5490 H   0  0  0  0  0  0  0  0  0  0  0  0
   13.3080   -3.0380   -0.5921 C   0  0  0  0  0  0  0  0  0  0  0  0
   12.4501   -3.1207   -1.4699 O   0  0  0  0  0  0  0  0  0  0  0  0
   13.0281   -2.6814    0.7128 N   0  0  0  0  0  0  0  0  0  0  0  0
   11.7203   -2.3131    1.2714 C   0  0  0  0  0  0  0  0  0  0  0  0
   10.9168   -2.4772    0.5396 H   0  0  0  0  0  0  0  0  0  0  0  0
   11.5067   -2.9221    2.1609 H   0  0  0  0  0  0  0  0  0  0  0  0
   11.7120   -1.2521    1.5580 H   0  0  0  0  0  0  0  0  0  0  0  0
   14.2382   -2.6248    1.3706 C   0  0  0  0  0  0  0  0  0  0  0  0
   14.4066   -2.3043    2.6801 N   0  0  0  0  0  0  0  0  0  0  0  0
   13.5927   -2.1231    3.2639 H   0  0  0  0  0  0  0  0  0  0  0  0
   15.3461   -2.3366    3.0825 H   0  0  0  0  0  0  0  0  0  0  0  0
   15.2431   -2.9153    0.6159 N   0  0  0  0  0  4  0  0  0  0  0  0
   16.2125   -2.9579    0.9480 H   0  0  0  0  0  0  0  0  0  0  0  0
   14.3164   -5.5617   -1.7679 C   0  0  0  0  0  0  0  0  0  0  0  0
   13.3611   -5.1863   -2.1215 H   0  0  0  0  0  0  0  0  0  0  0  0
   14.6478   -6.9124   -1.9678 C   0  0  0  0  0  0  0  0  0  0  0  0
   13.9623   -7.5769   -2.4866 H   0  0  0  0  0  0  0  0  0  0  0  0
  1  2  1  0
  2  3  2  0
  3  4  1  0
  3  5  1  0
  5  6  1  0
  5  7  2  0
  7  8  1  0
  8  9  1  0
  9 10  2  0
 10 11  1  0
 10 12  1  0
 12 13  1  0
 12 14  2  0
 14 15  1  0
 14 16  1  0
 16 17  1  0
 17 18  1  0
 18 19  1  0
 18 20  1  0
 18 21  1  0
 21 22  1  0
 21 23  1  0
 21 24  1  0
 24 25  1  0
 25 26  1  0
 25 27  1  0
 25 28  1  0
 16 29  2  0
 29 30  1  0
  8 31  1  0
 31 32  2  0
 31 33  1  0
 33 34  1  0
 34 35  1  0
 34 36  1  0
 34 37  1  0
 33 38  1  0
 38 39  1  0
 39 40  1  0
 39 41  1  0
 38 42  2  0
 42 43  1  0
  7 44  1  0
 44 45  1  0
 44 46  2  0
 46 47  1  0
 46  2  1  0
 42  8  1  0
 29  9  1  0
M  CHG  1  42   1
M  END
>  <score>  (412) 
5.09925

$$$$

     RDKit          3D

 50 53  0  0  0  0  0  0  0  0999 V2000
    8.3827  -11.6749   -2.0891 H   0  0  0  0  0  0  0  0  0  0  0  0
    9.1043  -10.8785   -1.9402 C   0  0  0  0  0  0  0  0  0  0  0  0
   10.0746  -10.6367   -2.9210 C   0  0  0  0  0  0  0  0  0  0  0  0
   10.0590  -11.1839   -3.8573 H   0  0  0  0  0  0  0  0  0  0  0  0
   11.0706   -9.6815   -2.6960 C   0  0  0  0  0  0  0  0  0  0  0  0
   11.8540   -9.5198   -3.4294 H   0  0  0  0  0  0  0  0  0  0  0  0
   11.0904   -8.9626   -1.4994 C   0  0  0  0  0  0  0  0  0  0  0  0
   12.1380   -8.0968   -1.2043 N   0  0  0  0  0  0  0  0  0  0  0  0
   12.0431   -7.5404   -0.3618 H   0  0  0  0  0  0  0  0  0  0  0  0
   13.4200   -8.2150   -1.7175 C   0  0  0  0  0  0  0  0  0  0  0  0
   13.6928   -9.1239   -2.4967 O   0  0  0  0  0  0  0  0  0  0  0  0
   14.4699   -7.2724   -1.2970 C   0  0  0  0  0  0  0  0  0  0  0  0
   15.8139   -7.6834   -1.2288 C   0  0  0  0  0  0  0  0  0  0  0  0
   16.0821   -8.7178   -1.4505 H   0  0  0  0  0  0  0  0  0  0  0  0
   16.8093   -6.7719   -0.8764 C   0  0  0  0  0  0  0  0  0  0  0  0
   17.8431   -7.0991   -0.8447 H   0  0  0  0  0  0  0  0  0  0  0  0
   16.4802   -5.4391   -0.5967 C   0  0  0  0  0  0  0  0  0  0  0  0
   17.2626   -4.7353   -0.3260 H   0  0  0  0  0  0  0  0  0  0  0  0
   15.1497   -4.9985   -0.6688 C   0  0  0  0  0  0  0  0  0  0  0  0
   14.8093   -3.5269   -0.4214 C   0  0  0  0  0  0  0  0  0  0  0  0
   15.3522   -2.5715   -1.4883 C   0  0  0  0  0  0  0  0  0  0  0  0
   15.8500   -3.0419   -2.7155 C   0  0  0  0  0  0  0  0  0  0  0  0
   15.8858   -4.1096   -2.9029 H   0  0  0  0  0  0  0  0  0  0  0  0
   16.2838   -2.1539   -3.7107 C   0  0  0  0  0  0  0  0  0  0  0  0
   16.6516   -2.5335   -4.6578 H   0  0  0  0  0  0  0  0  0  0  0  0
   16.2327   -0.7734   -3.4981 C   0  0  0  0  0  0  0  0  0  0  0  0
   16.5718   -0.0874   -4.2725 H   0  0  0  0  0  0  0  0  0  0  0  0
   15.7622   -0.2840   -2.2756 C   0  0  0  0  0  0  0  0  0  0  0  0
   15.7262    0.7891   -2.0983 H   0  0  0  0  0  0  0  0  0  0  0  0
   15.3243   -1.1757   -1.2838 C   0  0  0  0  0  0  0  0  0  0  0  0
   14.9487   -0.7721   -0.3469 H   0  0  0  0  0  0  0  0  0  0  0  0
   13.3000   -3.2763   -0.2275 C   0  0  0  0  0  0  0  0  0  0  0  0
   12.3983   -3.5245   -1.0257 O   0  0  0  0  0  0  0  0  0  0  0  0
   13.0761   -2.7450    1.0248 N   0  0  0  0  0  0  0  0  0  0  0  0
   11.8092   -2.2294    1.5449 C   0  0  0  0  0  0  0  0  0  0  0  0
   10.9919   -2.4032    0.8350 H   0  0  0  0  0  0  0  0  0  0  0  0
   11.5489   -2.7222    2.4884 H   0  0  0  0  0  0  0  0  0  0  0  0
   11.8790   -1.1508    1.7257 H   0  0  0  0  0  0  0  0  0  0  0  0
   14.3028   -2.6378    1.6347 C   0  0  0  0  0  0  0  0  0  0  0  0
   14.5061   -2.0786    2.8599 N   0  0  0  0  0  0  0  0  0  0  0  0
   13.6956   -1.9494    3.4623 H   0  0  0  0  0  0  0  0  0  0  0  0
   15.4197   -2.2095    3.2856 H   0  0  0  0  0  0  0  0  0  0  0  0
   15.2668   -3.1142    0.9208 N   0  0  0  0  0  4  0  0  0  0  0  0
   16.2494   -3.0618    1.1911 H   0  0  0  0  0  0  0  0  0  0  0  0
   14.1499   -5.9295   -1.0026 C   0  0  0  0  0  0  0  0  0  0  0  0
   13.1164   -5.5912   -1.0645 H   0  0  0  0  0  0  0  0  0  0  0  0
   10.0842   -9.1653   -0.5488 C   0  0  0  0  0  0  0  0  0  0  0  0
   10.0901   -8.5844    0.3670 H   0  0  0  0  0  0  0  0  0  0  0  0
    9.0914  -10.1317   -0.7572 C   0  0  0  0  0  0  0  0  0  0  0  0
    8.3477  -10.3266    0.0143 H   0  0  0  0  0  0  0  0  0  0  0  0
  1  2  1  0
  2  3  2  0
  3  4  1  0
  3  5  1  0
  5  6  1  0
  5  7  2  0
  7  8  1  0
  8  9  1  0
  8 10  1  0
 10 11  2  0
 10 12  1  0
 12 13  2  0
 13 14  1  0
 13 15  1  0
 15 16  1  0
 15 17  2  0
 17 18  1  0
 17 19  1  0
 19 20  1  0
 20 21  1  0
 21 22  2  0
 22 23  1  0
 22 24  1  0
 24 25  1  0
 24 26  2  0
 26 27  1  0
 26 28  1  0
 28 29  1  0
 28 30  2  0
 30 31  1  0
 20 32  1  0
 32 33  2  0
 32 34  1  0
 34 35  1  0
 35 36  1  0
 35 37  1  0
 35 38  1  0
 34 39  1  0
 39 40  1  0
 40 41  1  0
 40 42  1  0
 39 43  2  0
 43 44  1  0
 19 45  2  0
 45 46  1  0
  7 47  1  0
 47 48  1  0
 47 49  2  0
 49 50  1  0
 49  2  1  0
 45 12  1  0
 43 20  1  0
 30 21  1  0
M  CHG  1  43   1
M  END
>  <score>  (413) 
5.09646

$$$$

     RDKit          3D

 43 45  0  0  0  0  0  0  0  0999 V2000
   11.3493  -10.3567   -3.8742 H   0  0  0  0  0  0  0  0  0  0  0  0
   11.6708   -9.6514   -3.2842 O   0  0  0  0  0  0  0  0  0  0  0  0
   12.9621   -9.9798   -3.1414 C   0  0  0  0  0  0  0  0  0  0  0  0
   13.4326  -11.0277   -3.5625 O   0  0  0  0  0  0  0  0  0  0  0  0
   13.8765   -9.0297   -2.5239 C   0  0  0  0  0  0  0  0  0  0  0  0
   14.8541   -9.4140   -2.2774 H   0  0  0  0  0  0  0  0  0  0  0  0
   13.6209   -7.6936   -2.2488 C   0  0  0  0  0  0  0  0  0  0  0  0
   12.6557   -7.2495   -2.4802 H   0  0  0  0  0  0  0  0  0  0  0  0
   14.6474   -6.8033   -1.6706 C   0  0  0  0  0  0  0  0  0  0  0  0
   15.9100   -7.2757   -1.2722 C   0  0  0  0  0  0  0  0  0  0  0  0
   16.1487   -8.3248   -1.4060 H   0  0  0  0  0  0  0  0  0  0  0  0
   16.8588   -6.4026   -0.7121 C   0  0  0  0  0  0  0  0  0  0  0  0
   17.8461   -6.7499   -0.4232 H   0  0  0  0  0  0  0  0  0  0  0  0
   16.5415   -5.0562   -0.5206 C   0  0  0  0  0  0  0  0  0  0  0  0
   17.2741   -4.3829   -0.0810 H   0  0  0  0  0  0  0  0  0  0  0  0
   15.2821   -4.5668   -0.8863 C   0  0  0  0  0  0  0  0  0  0  0  0
   14.9060   -3.1155   -0.6440 C   0  0  0  0  0  0  0  0  0  0  0  0
   15.4349   -2.1567   -1.7026 C   0  0  0  0  0  0  0  0  0  0  0  0
   15.9479   -2.6074   -2.9335 C   0  0  0  0  0  0  0  0  0  0  0  0
   15.9842   -3.6721   -3.1470 H   0  0  0  0  0  0  0  0  0  0  0  0
   16.4148   -1.6945   -3.8895 C   0  0  0  0  0  0  0  0  0  0  0  0
   16.8156   -2.0481   -4.8353 H   0  0  0  0  0  0  0  0  0  0  0  0
   16.3627   -0.3205   -3.6291 C   0  0  0  0  0  0  0  0  0  0  0  0
   16.7373    0.3871   -4.3637 H   0  0  0  0  0  0  0  0  0  0  0  0
   15.8253    0.1426   -2.4228 C   0  0  0  0  0  0  0  0  0  0  0  0
   15.7677    1.2085   -2.2169 H   0  0  0  0  0  0  0  0  0  0  0  0
   15.3592   -0.7721   -1.4727 C   0  0  0  0  0  0  0  0  0  0  0  0
   14.9325   -0.4073   -0.5419 H   0  0  0  0  0  0  0  0  0  0  0  0
   13.3837   -2.9399   -0.4965 C   0  0  0  0  0  0  0  0  0  0  0  0
   12.5236   -3.1346   -1.3527 O   0  0  0  0  0  0  0  0  0  0  0  0
   13.0938   -2.5632    0.7998 N   0  0  0  0  0  0  0  0  0  0  0  0
   11.7638   -2.2780    1.3347 C   0  0  0  0  0  0  0  0  0  0  0  0
   10.9914   -2.4815    0.5826 H   0  0  0  0  0  0  0  0  0  0  0  0
   11.5506   -2.9009    2.2125 H   0  0  0  0  0  0  0  0  0  0  0  0
   11.6881   -1.2219    1.6197 H   0  0  0  0  0  0  0  0  0  0  0  0
   14.2913   -2.4911    1.4774 C   0  0  0  0  0  0  0  0  0  0  0  0
   14.4530   -2.2501    2.8084 N   0  0  0  0  0  0  0  0  0  0  0  0
   13.6389   -2.0903    3.4010 H   0  0  0  0  0  0  0  0  0  0  0  0
   15.3946   -2.2259    3.1947 H   0  0  0  0  0  0  0  0  0  0  0  0
   15.3127   -2.7279    0.7232 N   0  0  0  0  0  4  0  0  0  0  0  0
   16.2507   -2.8837    1.0994 H   0  0  0  0  0  0  0  0  0  0  0  0
   14.3610   -5.4444   -1.4881 C   0  0  0  0  0  0  0  0  0  0  0  0
   13.3993   -5.0589   -1.8119 H   0  0  0  0  0  0  0  0  0  0  0  0
  1  2  1  0
  2  3  1  0
  3  4  2  0
  3  5  1  0
  5  6  1  0
  5  7  2  3
  7  8  1  0
  7  9  1  0
  9 10  2  0
 10 11  1  0
 10 12  1  0
 12 13  1  0
 12 14  2  0
 14 15  1  0
 14 16  1  0
 16 17  1  0
 17 18  1  0
 18 19  2  0
 19 20  1  0
 19 21  1  0
 21 22  1  0
 21 23  2  0
 23 24  1  0
 23 25  1  0
 25 26  1  0
 25 27  2  0
 27 28  1  0
 17 29  1  0
 29 30  2  0
 29 31  1  0
 31 32  1  0
 32 33  1  0
 32 34  1  0
 32 35  1  0
 31 36  1  0
 36 37  1  0
 37 38  1  0
 37 39  1  0
 36 40  2  0
 40 41  1  0
 16 42  2  0
 42 43  1  0
 42  9  1  0
 40 17  1  0
 27 18  1  0
M  CHG  1  40   1
M  END
>  <score>  (414) 
5.0956

$$$$

     RDKit          3D

 44 46  0  0  0  0  0  0  0  0999 V2000
   16.1203   -8.4852   -1.6114 H   0  0  0  0  0  0  0  0  0  0  0  0
   15.8535   -7.4395   -1.4733 C   0  0  0  0  0  0  0  0  0  0  0  0
   16.7297   -6.5822   -0.8033 C   0  0  0  0  0  0  0  0  0  0  0  0
   17.6717   -6.9565   -0.4164 H   0  0  0  0  0  0  0  0  0  0  0  0
   16.3936   -5.2373   -0.6119 C   0  0  0  0  0  0  0  0  0  0  0  0
   17.0662   -4.5856   -0.0627 H   0  0  0  0  0  0  0  0  0  0  0  0
   15.1746   -4.7158   -1.0755 C   0  0  0  0  0  0  0  0  0  0  0  0
   14.8145   -3.2553   -0.7841 C   0  0  0  0  0  0  0  0  0  0  0  0
   15.3861   -2.2524   -1.7806 C   0  0  0  0  0  0  0  0  0  0  0  0
   15.9392   -2.6444   -3.0101 C   0  0  0  0  0  0  0  0  0  0  0  0
   16.0012   -3.6963   -3.2566 H   0  0  0  0  0  0  0  0  0  0  0  0
   16.4203   -1.6970   -3.9235 C   0  0  0  0  0  0  0  0  0  0  0  0
   16.8559   -2.0066   -4.8654 H   0  0  0  0  0  0  0  0  0  0  0  0
   16.3549   -0.3359   -3.6274 C   0  0  0  0  0  0  0  0  0  0  0  0
   16.7185    0.3989   -4.3429 H   0  0  0  0  0  0  0  0  0  0  0  0
   15.8107    0.0818   -2.4087 C   0  0  0  0  0  0  0  0  0  0  0  0
   15.7344    1.5503   -2.0817 C   0  0  0  0  0  0  0  0  0  0  0  0
   15.6809    2.1455   -2.9981 H   0  0  0  0  0  0  0  0  0  0  0  0
   14.8310    1.7620   -1.5035 H   0  0  0  0  0  0  0  0  0  0  0  0
   16.9060    1.9759   -1.3096 N   0  0  0  0  0  0  0  0  0  0  0  0
   17.7742    1.7885   -1.8137 H   0  0  0  0  0  0  0  0  0  0  0  0
   16.8300    3.3632   -0.8221 C   0  0  0  0  0  0  0  0  0  0  0  0
   15.9553    3.4856   -0.1750 H   0  0  0  0  0  0  0  0  0  0  0  0
   16.7604    4.0610   -1.6598 H   0  0  0  0  0  0  0  0  0  0  0  0
   17.7096    3.6363   -0.2446 H   0  0  0  0  0  0  0  0  0  0  0  0
   15.3251   -0.8759   -1.5027 C   0  0  0  0  0  0  0  0  0  0  0  0
   14.9026   -0.5395   -0.5609 H   0  0  0  0  0  0  0  0  0  0  0  0
   13.3014   -3.0314   -0.6007 C   0  0  0  0  0  0  0  0  0  0  0  0
   12.4317   -3.0915   -1.4675 O   0  0  0  0  0  0  0  0  0  0  0  0
   13.0248   -2.6774    0.7041 N   0  0  0  0  0  0  0  0  0  0  0  0
   11.7199   -2.3136    1.2636 C   0  0  0  0  0  0  0  0  0  0  0  0
   11.6957   -1.2622    1.5604 H   0  0  0  0  0  0  0  0  0  0  0  0
   11.5026   -2.9172    2.1469 H   0  0  0  0  0  0  0  0  0  0  0  0
   10.9125   -2.4729    0.5419 H   0  0  0  0  0  0  0  0  0  0  0  0
   14.2261   -2.6285    1.3642 C   0  0  0  0  0  0  0  0  0  0  0  0
   14.3959   -2.3305    2.6837 N   0  0  0  0  0  0  0  0  0  0  0  0
   15.3331   -2.3516    3.0897 H   0  0  0  0  0  0  0  0  0  0  0  0
   13.5829   -2.1266    3.2600 H   0  0  0  0  0  0  0  0  0  0  0  0
   15.2197   -2.9047    0.5927 N   0  0  0  0  0  4  0  0  0  0  0  0
   16.1895   -2.9122    0.9058 H   0  0  0  0  0  0  0  0  0  0  0  0
   14.3040   -5.5869   -1.7679 C   0  0  0  0  0  0  0  0  0  0  0  0
   13.3535   -5.2304   -2.1545 H   0  0  0  0  0  0  0  0  0  0  0  0
   14.6430   -6.9378   -1.9623 C   0  0  0  0  0  0  0  0  0  0  0  0
   13.9724   -7.6114   -2.4878 H   0  0  0  0  0  0  0  0  0  0  0  0
  1  2  1  0
  2  3  2  0
  3  4  1  0
  3  5  1  0
  5  6  1  0
  5  7  2  0
  7  8  1  0
  8  9  1  0
  9 10  2  0
 10 11  1  0
 10 12  1  0
 12 13  1  0
 12 14  2  0
 14 15  1  0
 14 16  1  0
 16 17  1  0
 17 18  1  0
 17 19  1  0
 17 20  1  0
 20 21  1  0
 20 22  1  0
 22 23  1  0
 22 24  1  0
 22 25  1  0
 16 26  2  0
 26 27  1  0
  8 28  1  0
 28 29  2  0
 28 30  1  0
 30 31  1  0
 31 32  1  0
 31 33  1  0
 31 34  1  0
 30 35  1  0
 35 36  1  0
 36 37  1  0
 36 38  1  0
 35 39  2  0
 39 40  1  0
  7 41  1  0
 41 42  1  0
 41 43  2  0
 43 44  1  0
 43  2  1  0
 39  8  1  0
 26  9  1  0
M  CHG  1  39   1
M  END
>  <score>  (415) 
5.09537

$$$$

     RDKit          3D

 56 59  0  0  0  0  0  0  0  0999 V2000
   16.2709   -8.5999   -1.8495 H   0  0  0  0  0  0  0  0  0  0  0  0
   15.9727   -7.6007   -1.5487 C   0  0  0  0  0  0  0  0  0  0  0  0
   16.8315   -6.8214   -0.7669 C   0  0  0  0  0  0  0  0  0  0  0  0
   17.7963   -7.2074   -0.4548 H   0  0  0  0  0  0  0  0  0  0  0  0
   16.4562   -5.5286   -0.3904 C   0  0  0  0  0  0  0  0  0  0  0  0
   17.1386   -4.9059    0.1831 H   0  0  0  0  0  0  0  0  0  0  0  0
   15.2132   -5.0092   -0.7804 C   0  0  0  0  0  0  0  0  0  0  0  0
   14.8700   -3.5632   -0.4916 C   0  0  0  0  0  0  0  0  0  0  0  0
   15.4952   -2.6960   -1.5757 C   0  0  0  0  0  0  0  0  0  0  0  0
   15.7370   -3.1815   -2.8767 C   0  0  0  0  0  0  0  0  0  0  0  0
   15.4792   -4.2074   -3.1383 H   0  0  0  0  0  0  0  0  0  0  0  0
   16.3199   -2.3578   -3.8489 C   0  0  0  0  0  0  0  0  0  0  0  0
   16.4992   -2.7301   -4.8476 H   0  0  0  0  0  0  0  0  0  0  0  0
   16.6413   -1.0310   -3.5493 C   0  0  0  0  0  0  0  0  0  0  0  0
   17.0802   -0.3753   -4.2968 H   0  0  0  0  0  0  0  0  0  0  0  0
   16.3465   -0.5149   -2.2886 C   0  0  0  0  0  0  0  0  0  0  0  0
   16.5284    0.8189   -2.0424 O   0  0  0  0  0  0  0  0  0  0  0  0
   15.5608    1.3131   -1.1013 C   0  0  0  0  0  0  0  0  0  0  0  0
   14.5596    0.9987   -1.4121 H   0  0  0  0  0  0  0  0  0  0  0  0
   15.7580    0.8691   -0.1217 H   0  0  0  0  0  0  0  0  0  0  0  0
   15.5917    2.8211   -0.9502 C   0  0  0  0  0  0  0  0  0  0  0  0
   16.6266    3.1288   -0.7723 H   0  0  0  0  0  0  0  0  0  0  0  0
   15.0123    3.0771   -0.0587 H   0  0  0  0  0  0  0  0  0  0  0  0
   15.0406    3.5402   -2.1195 N   0  0  0  0  0  0  0  0  0  0  0  0
   13.5658    3.4731   -2.2773 C   0  0  0  0  0  0  0  0  0  0  0  0
   13.2951    3.7772   -3.2945 H   0  0  0  0  0  0  0  0  0  0  0  0
   13.2069    2.4504   -2.1214 H   0  0  0  0  0  0  0  0  0  0  0  0
   12.8819    4.4192   -1.2708 C   0  0  0  0  0  0  0  0  0  0  0  0
   13.0309    4.0473   -0.2523 H   0  0  0  0  0  0  0  0  0  0  0  0
   11.8048    4.4578   -1.4490 H   0  0  0  0  0  0  0  0  0  0  0  0
   13.4341    5.7427   -1.3770 O   0  0  0  0  0  0  0  0  0  0  0  0
   14.8354    5.7328   -1.0762 C   0  0  0  0  0  0  0  0  0  0  0  0
   15.0114    5.2810   -0.0942 H   0  0  0  0  0  0  0  0  0  0  0  0
   15.2374    6.7391   -1.0274 H   0  0  0  0  0  0  0  0  0  0  0  0
   15.5246    4.9329   -2.1805 C   0  0  0  0  0  0  0  0  0  0  0  0
   15.2856    5.3782   -3.1560 H   0  0  0  0  0  0  0  0  0  0  0  0
   16.6069    4.9564   -2.0319 H   0  0  0  0  0  0  0  0  0  0  0  0
   15.7980   -1.3608   -1.3096 C   0  0  0  0  0  0  0  0  0  0  0  0
   15.5824   -0.9582   -0.3256 H   0  0  0  0  0  0  0  0  0  0  0  0
   13.3577   -3.2859   -0.3776 C   0  0  0  0  0  0  0  0  0  0  0  0
   12.5232   -3.3935   -1.2705 O   0  0  0  0  0  0  0  0  0  0  0  0
   13.0561   -2.8672    0.9056 N   0  0  0  0  0  0  0  0  0  0  0  0
   11.7753   -2.3566    1.4017 C   0  0  0  0  0  0  0  0  0  0  0  0
   11.8604   -1.2928    1.6516 H   0  0  0  0  0  0  0  0  0  0  0  0
   10.9856   -2.4756    0.6514 H   0  0  0  0  0  0  0  0  0  0  0  0
   11.4764   -2.8930    2.3093 H   0  0  0  0  0  0  0  0  0  0  0  0
   14.2400   -2.8191    1.5996 C   0  0  0  0  0  0  0  0  0  0  0  0
   14.3414   -2.4070    2.8931 N   0  0  0  0  0  0  0  0  0  0  0  0
   15.2738   -2.2161    3.2625 H   0  0  0  0  0  0  0  0  0  0  0  0
   13.5365   -1.9370    3.3123 H   0  0  0  0  0  0  0  0  0  0  0  0
   15.2561   -3.1889    0.8890 N   0  0  0  0  0  4  0  0  0  0  0  0
   16.2163   -3.2155    1.2409 H   0  0  0  0  0  0  0  0  0  0  0  0
   14.3536   -5.7986   -1.5609 C   0  0  0  0  0  0  0  0  0  0  0  0
   13.4003   -5.3962   -1.8957 H   0  0  0  0  0  0  0  0  0  0  0  0
   14.7305   -7.0912   -1.9407 C   0  0  0  0  0  0  0  0  0  0  0  0
   14.0617   -7.6918   -2.5483 H   0  0  0  0  0  0  0  0  0  0  0  0
  1  2  1  0
  2  3  2  0
  3  4  1  0
  3  5  1  0
  5  6  1  0
  5  7  2  0
  7  8  1  0
  8  9  1  0
  9 10  2  0
 10 11  1  0
 10 12  1  0
 12 13  1  0
 12 14  2  0
 14 15  1  0
 14 16  1  0
 16 17  1  0
 17 18  1  0
 18 19  1  0
 18 20  1  0
 18 21  1  0
 21 22  1  0
 21 23  1  0
 21 24  1  0
 24 25  1  0
 25 26  1  0
 25 27  1  0
 25 28  1  0
 28 29  1  0
 28 30  1  0
 28 31  1  0
 31 32  1  0
 32 33  1  0
 32 34  1  0
 32 35  1  0
 35 36  1  0
 35 37  1  0
 16 38  2  0
 38 39  1  0
  8 40  1  0
 40 41  2  0
 40 42  1  0
 42 43  1  0
 43 44  1  0
 43 45  1  0
 43 46  1  0
 42 47  1  0
 47 48  1  0
 48 49  1  0
 48 50  1  0
 47 51  2  0
 51 52  1  0
  7 53  1  0
 53 54  1  0
 53 55  2  0
 55 56  1  0
 55  2  1  0
 51  8  1  0
 38  9  1  0
 35 24  1  0
M  CHG  1  51   1
M  END
>  <score>  (416) 
5.09099

$$$$

     RDKit          3D

 45 47  0  0  0  0  0  0  0  0999 V2000
   16.1030   -8.3529   -1.6967 H   0  0  0  0  0  0  0  0  0  0  0  0
   15.8783   -7.3061   -1.5145 C   0  0  0  0  0  0  0  0  0  0  0  0
   16.7872   -6.4999   -0.8198 C   0  0  0  0  0  0  0  0  0  0  0  0
   17.7268   -6.9168   -0.4681 H   0  0  0  0  0  0  0  0  0  0  0  0
   16.4811   -5.1574   -0.5643 C   0  0  0  0  0  0  0  0  0  0  0  0
   17.1883   -4.5392   -0.0183 H   0  0  0  0  0  0  0  0  0  0  0  0
   15.2611   -4.6072   -0.9910 C   0  0  0  0  0  0  0  0  0  0  0  0
   14.8828   -3.1659   -0.6784 C   0  0  0  0  0  0  0  0  0  0  0  0
   15.3575   -2.1813   -1.7427 C   0  0  0  0  0  0  0  0  0  0  0  0
   16.0500   -2.6068   -2.8923 C   0  0  0  0  0  0  0  0  0  0  0  0
   16.3040   -3.6555   -3.0197 H   0  0  0  0  0  0  0  0  0  0  0  0
   16.4236   -1.6917   -3.8850 C   0  0  0  0  0  0  0  0  0  0  0  0
   16.9471   -2.0238   -4.7753 H   0  0  0  0  0  0  0  0  0  0  0  0
   16.1275   -0.3332   -3.7333 C   0  0  0  0  0  0  0  0  0  0  0  0
   16.4118    0.3879   -4.4940 H   0  0  0  0  0  0  0  0  0  0  0  0
   15.4416    0.1161   -2.6042 C   0  0  0  0  0  0  0  0  0  0  0  0
   15.1226    1.5888   -2.4652 C   0  0  0  0  0  0  0  0  0  0  0  0
   14.1333    1.7036   -2.0150 H   0  0  0  0  0  0  0  0  0  0  0  0
   15.1223    2.0712   -3.4467 H   0  0  0  0  0  0  0  0  0  0  0  0
   16.3230    2.5103   -1.4516 S   0  0  0  0  0  0  0  0  0  0  0  0
   17.6738    2.4970   -2.0328 O   0  0  0  0  0  0  0  0  0  0  0  0
   15.8346    3.8809   -1.2225 O   0  0  0  0  0  0  0  0  0  0  0  0
   16.3400    1.7000    0.1424 C   0  0  0  0  0  0  0  0  0  0  0  0
   16.4775    0.6251    0.0286 H   0  0  0  0  0  0  0  0  0  0  0  0
   17.1402    2.1005    0.7659 H   0  0  0  0  0  0  0  0  0  0  0  0
   15.3949    1.9281    0.6093 H   0  0  0  0  0  0  0  0  0  0  0  0
   15.0456   -0.8098   -1.6266 C   0  0  0  0  0  0  0  0  0  0  0  0
   14.4694   -0.4607   -0.7743 H   0  0  0  0  0  0  0  0  0  0  0  0
   13.3634   -3.0149   -0.4686 C   0  0  0  0  0  0  0  0  0  0  0  0
   12.4717   -3.2584   -1.2775 O   0  0  0  0  0  0  0  0  0  0  0  0
   13.1085   -2.5807    0.8165 N   0  0  0  0  0  0  0  0  0  0  0  0
   11.7906   -2.2718    1.3751 C   0  0  0  0  0  0  0  0  0  0  0  0
   11.7297   -1.2138    1.6546 H   0  0  0  0  0  0  0  0  0  0  0  0
   11.5826   -2.8806    2.2630 H   0  0  0  0  0  0  0  0  0  0  0  0
   11.0004   -2.4722    0.6412 H   0  0  0  0  0  0  0  0  0  0  0  0
   14.3267   -2.4767    1.4507 C   0  0  0  0  0  0  0  0  0  0  0  0
   14.5034   -2.1177    2.7556 N   0  0  0  0  0  0  0  0  0  0  0  0
   15.4270   -2.2615    3.1585 H   0  0  0  0  0  0  0  0  0  0  0  0
   13.6878   -2.1191    3.3645 H   0  0  0  0  0  0  0  0  0  0  0  0
   15.3205   -2.7761    0.6808 N   0  0  0  0  0  4  0  0  0  0  0  0
   16.2841   -2.8648    1.0094 H   0  0  0  0  0  0  0  0  0  0  0  0
   14.3762   -5.4193   -1.7204 C   0  0  0  0  0  0  0  0  0  0  0  0
   13.4389   -5.0076   -2.0814 H   0  0  0  0  0  0  0  0  0  0  0  0
   14.6766   -6.7602   -1.9745 C   0  0  0  0  0  0  0  0  0  0  0  0
   13.9715   -7.3764   -2.5243 H   0  0  0  0  0  0  0  0  0  0  0  0
  1  2  1  0
  2  3  2  0
  3  4  1  0
  3  5  1  0
  5  6  1  0
  5  7  2  0
  7  8  1  0
  8  9  1  0
  9 10  2  0
 10 11  1  0
 10 12  1  0
 12 13  1  0
 12 14  2  0
 14 15  1  0
 14 16  1  0
 16 17  1  0
 17 18  1  0
 17 19  1  0
 17 20  1  0
 20 21  2  0
 20 22  2  0
 20 23  1  0
 23 24  1  0
 23 25  1  0
 23 26  1  0
 16 27  2  0
 27 28  1  0
  8 29  1  0
 29 30  2  0
 29 31  1  0
 31 32  1  0
 32 33  1  0
 32 34  1  0
 32 35  1  0
 31 36  1  0
 36 37  1  0
 37 38  1  0
 37 39  1  0
 36 40  2  0
 40 41  1  0
  7 42  1  0
 42 43  1  0
 42 44  2  0
 44 45  1  0
 44  2  1  0
 40  8  1  0
 27  9  1  0
M  CHG  1  40   1
M  END
>  <score>  (417) 
5.08399

$$$$

     RDKit          3D

 49 52  0  0  0  0  0  0  0  0999 V2000
   11.6556   -6.4787   -1.5366 H   0  0  0  0  0  0  0  0  0  0  0  0
   11.9355   -7.4890   -1.8256 C   0  0  0  0  0  0  0  0  0  0  0  0
   10.9541   -8.3321   -2.2194 N   0  0  0  0  0  0  0  0  0  0  0  0
   11.3031   -9.5804   -2.5740 C   0  0  0  0  0  0  0  0  0  0  0  0
   10.4045  -10.5413   -2.9514 O   0  0  0  0  0  0  0  0  0  0  0  0
    9.1880  -10.1241   -3.5847 C   0  0  0  0  0  0  0  0  0  0  0  0
    8.9415   -9.0742   -3.3912 H   0  0  0  0  0  0  0  0  0  0  0  0
    8.3575  -10.7416   -3.2273 H   0  0  0  0  0  0  0  0  0  0  0  0
    9.2763  -10.2824   -4.6650 H   0  0  0  0  0  0  0  0  0  0  0  0
   12.6199  -10.0076   -2.5278 C   0  0  0  0  0  0  0  0  0  0  0  0
   12.8219  -11.0137   -2.8596 H   0  0  0  0  0  0  0  0  0  0  0  0
   13.6337   -9.1589   -2.1163 C   0  0  0  0  0  0  0  0  0  0  0  0
   14.6591   -9.5176   -2.0702 H   0  0  0  0  0  0  0  0  0  0  0  0
   13.3020   -7.8446   -1.7833 C   0  0  0  0  0  0  0  0  0  0  0  0
   14.3755   -6.8782   -1.4355 C   0  0  0  0  0  0  0  0  0  0  0  0
   15.7131   -7.2984   -1.3182 C   0  0  0  0  0  0  0  0  0  0  0  0
   15.9622   -8.3414   -1.4861 H   0  0  0  0  0  0  0  0  0  0  0  0
   16.7304   -6.3970   -0.9787 C   0  0  0  0  0  0  0  0  0  0  0  0
   17.7613   -6.7265   -0.9008 H   0  0  0  0  0  0  0  0  0  0  0  0
   16.4255   -5.0551   -0.7552 C   0  0  0  0  0  0  0  0  0  0  0  0
   17.2171   -4.3588   -0.4855 H   0  0  0  0  0  0  0  0  0  0  0  0
   15.1098   -4.5965   -0.8927 C   0  0  0  0  0  0  0  0  0  0  0  0
   14.8002   -3.1322   -0.6396 C   0  0  0  0  0  0  0  0  0  0  0  0
   15.3805   -2.1855   -1.6807 C   0  0  0  0  0  0  0  0  0  0  0  0
   15.9150   -2.6585   -2.8926 C   0  0  0  0  0  0  0  0  0  0  0  0
   15.9342   -3.7260   -3.0909 H   0  0  0  0  0  0  0  0  0  0  0  0
   16.4267   -1.7690   -3.8451 C   0  0  0  0  0  0  0  0  0  0  0  0
   16.8378   -2.1423   -4.7775 H   0  0  0  0  0  0  0  0  0  0  0  0
   16.4119   -0.3938   -3.5964 C   0  0  0  0  0  0  0  0  0  0  0  0
   16.8127    0.2969   -4.3327 H   0  0  0  0  0  0  0  0  0  0  0  0
   15.8823    0.0904   -2.3961 C   0  0  0  0  0  0  0  0  0  0  0  0
   15.8705    1.1572   -2.1956 H   0  0  0  0  0  0  0  0  0  0  0  0
   15.3675   -0.7993   -1.4474 C   0  0  0  0  0  0  0  0  0  0  0  0
   14.9582   -0.4145   -0.5160 H   0  0  0  0  0  0  0  0  0  0  0  0
   13.2978   -2.8754   -0.3974 C   0  0  0  0  0  0  0  0  0  0  0  0
   12.3846   -2.9614   -1.2175 O   0  0  0  0  0  0  0  0  0  0  0  0
   13.1063   -2.5653    0.9342 N   0  0  0  0  0  0  0  0  0  0  0  0
   11.8623   -2.1848    1.5981 C   0  0  0  0  0  0  0  0  0  0  0  0
   11.7415   -1.0973    1.5678 H   0  0  0  0  0  0  0  0  0  0  0  0
   10.9904   -2.6506    1.1255 H   0  0  0  0  0  0  0  0  0  0  0  0
   11.8790   -2.5027    2.6460 H   0  0  0  0  0  0  0  0  0  0  0  0
   14.3485   -2.5253    1.5199 C   0  0  0  0  0  0  0  0  0  0  0  0
   14.5905   -2.2486    2.8269 N   0  0  0  0  0  0  0  0  0  0  0  0
   13.7990   -2.3097    3.4638 H   0  0  0  0  0  0  0  0  0  0  0  0
   15.5203   -2.4582    3.1803 H   0  0  0  0  0  0  0  0  0  0  0  0
   15.3017   -2.8028    0.7050 N   0  0  0  0  0  4  0  0  0  0  0  0
   16.2776   -2.8921    0.9916 H   0  0  0  0  0  0  0  0  0  0  0  0
   14.0964   -5.5148   -1.2346 C   0  0  0  0  0  0  0  0  0  0  0  0
   13.0748   -5.1667   -1.3332 H   0  0  0  0  0  0  0  0  0  0  0  0
  1  2  1  0
  2  3  2  0
  3  4  1  0
  4  5  1  0
  5  6  1  0
  6  7  1  0
  6  8  1  0
  6  9  1  0
  4 10  2  0
 10 11  1  0
 10 12  1  0
 12 13  1  0
 12 14  2  0
 14 15  1  0
 15 16  2  0
 16 17  1  0
 16 18  1  0
 18 19  1  0
 18 20  2  0
 20 21  1  0
 20 22  1  0
 22 23  1  0
 23 24  1  0
 24 25  2  0
 25 26  1  0
 25 27  1  0
 27 28  1  0
 27 29  2  0
 29 30  1  0
 29 31  1  0
 31 32  1  0
 31 33  2  0
 33 34  1  0
 23 35  1  0
 35 36  2  0
 35 37  1  0
 37 38  1  0
 38 39  1  0
 38 40  1  0
 38 41  1  0
 37 42  1  0
 42 43  1  0
 43 44  1  0
 43 45  1  0
 42 46  2  0
 46 47  1  0
 22 48  2  0
 48 49  1  0
 14  2  1  0
 48 15  1  0
 46 23  1  0
 33 24  1  0
M  CHG  1  46   1
M  END
>  <score>  (418) 
5.0832

$$$$

     RDKit          3D

 49 52  0  0  0  0  0  0  0  0999 V2000
    7.9567   -8.9966   -2.8603 H   0  0  0  0  0  0  0  0  0  0  0  0
    8.8614   -9.3354   -2.9331 O   0  0  0  0  0  0  0  0  0  0  0  0
    9.6478   -8.3485   -2.4370 C   0  0  0  0  0  0  0  0  0  0  0  0
    9.1927   -7.2915   -2.0241 O   0  0  0  0  0  0  0  0  0  0  0  0
   11.1134   -8.5533   -2.4267 C   0  0  0  0  0  0  0  0  0  0  0  0
   11.6401   -9.7617   -2.9361 C   0  0  0  0  0  0  0  0  0  0  0  0
   11.0006  -10.5424   -3.3451 H   0  0  0  0  0  0  0  0  0  0  0  0
   13.0111   -9.9834   -2.9469 C   0  0  0  0  0  0  0  0  0  0  0  0
   13.3975  -10.9319   -3.3030 H   0  0  0  0  0  0  0  0  0  0  0  0
   13.8852   -8.9875   -2.5179 C   0  0  0  0  0  0  0  0  0  0  0  0
   14.9539   -9.1470   -2.5770 H   0  0  0  0  0  0  0  0  0  0  0  0
   13.4169   -7.7582   -2.0377 C   0  0  0  0  0  0  0  0  0  0  0  0
   14.4284   -6.7746   -1.5854 C   0  0  0  0  0  0  0  0  0  0  0  0
   15.7222   -7.2376   -1.2833 C   0  0  0  0  0  0  0  0  0  0  0  0
   15.9553   -8.2875   -1.4111 H   0  0  0  0  0  0  0  0  0  0  0  0
   16.7103   -6.3844   -0.8032 C   0  0  0  0  0  0  0  0  0  0  0  0
   17.6944   -6.7765   -0.5643 H   0  0  0  0  0  0  0  0  0  0  0  0
   16.4254   -5.0329   -0.6244 C   0  0  0  0  0  0  0  0  0  0  0  0
   17.1995   -4.3753   -0.2397 H   0  0  0  0  0  0  0  0  0  0  0  0
   15.1485   -4.5253   -0.9068 C   0  0  0  0  0  0  0  0  0  0  0  0
   14.8544   -3.0512   -0.6363 C   0  0  0  0  0  0  0  0  0  0  0  0
   15.4395   -2.1001   -1.6769 C   0  0  0  0  0  0  0  0  0  0  0  0
   15.9574   -2.5714   -2.8967 C   0  0  0  0  0  0  0  0  0  0  0  0
   15.9876   -3.6392   -3.0918 H   0  0  0  0  0  0  0  0  0  0  0  0
   16.4254   -1.6796   -3.8692 C   0  0  0  0  0  0  0  0  0  0  0  0
   16.8213   -2.0546   -4.8065 H   0  0  0  0  0  0  0  0  0  0  0  0
   16.3786   -0.3025   -3.6402 C   0  0  0  0  0  0  0  0  0  0  0  0
   16.7374    0.3891   -4.3969 H   0  0  0  0  0  0  0  0  0  0  0  0
   15.8592    0.1821   -2.4363 C   0  0  0  0  0  0  0  0  0  0  0  0
   15.8114    1.2503   -2.2508 H   0  0  0  0  0  0  0  0  0  0  0  0
   15.3920   -0.7104   -1.4638 C   0  0  0  0  0  0  0  0  0  0  0  0
   14.9797   -0.3258   -0.5337 H   0  0  0  0  0  0  0  0  0  0  0  0
   13.3474   -2.7902   -0.4665 C   0  0  0  0  0  0  0  0  0  0  0  0
   12.4788   -2.9003   -1.3305 O   0  0  0  0  0  0  0  0  0  0  0  0
   13.0811   -2.4486    0.8423 N   0  0  0  0  0  0  0  0  0  0  0  0
   11.7530   -2.2246    1.4163 C   0  0  0  0  0  0  0  0  0  0  0  0
   11.5927   -2.8685    2.2883 H   0  0  0  0  0  0  0  0  0  0  0  0
   11.6343   -1.1799    1.7222 H   0  0  0  0  0  0  0  0  0  0  0  0
   10.9719   -2.4520    0.6802 H   0  0  0  0  0  0  0  0  0  0  0  0
   14.2847   -2.4659    1.5168 C   0  0  0  0  0  0  0  0  0  0  0  0
   14.4463   -2.2879    2.8587 N   0  0  0  0  0  0  0  0  0  0  0  0
   13.6426   -2.0176    3.4248 H   0  0  0  0  0  0  0  0  0  0  0  0
   15.3905   -2.1907    3.2307 H   0  0  0  0  0  0  0  0  0  0  0  0
   15.2895   -2.7142    0.7373 N   0  0  0  0  0  4  0  0  0  0  0  0
   16.2408   -2.8669    1.0787 H   0  0  0  0  0  0  0  0  0  0  0  0
   14.1600   -5.4048   -1.4076 C   0  0  0  0  0  0  0  0  0  0  0  0
   13.1787   -5.0124   -1.6587 H   0  0  0  0  0  0  0  0  0  0  0  0
   12.0211   -7.5605   -1.9575 C   0  0  0  0  0  0  0  0  0  0  0  0
   11.6518   -6.6379   -1.5126 H   0  0  0  0  0  0  0  0  0  0  0  0
  1  2  1  0
  2  3  1  0
  3  4  2  0
  3  5  1  0
  5  6  2  0
  6  7  1  0
  6  8  1  0
  8  9  1  0
  8 10  2  0
 10 11  1  0
 10 12  1  0
 12 13  1  0
 13 14  2  0
 14 15  1  0
 14 16  1  0
 16 17  1  0
 16 18  2  0
 18 19  1  0
 18 20  1  0
 20 21  1  0
 21 22  1  0
 22 23  2  0
 23 24  1  0
 23 25  1  0
 25 26  1  0
 25 27  2  0
 27 28  1  0
 27 29  1  0
 29 30  1  0
 29 31  2  0
 31 32  1  0
 21 33  1  0
 33 34  2  0
 33 35  1  0
 35 36  1  0
 36 37  1  0
 36 38  1  0
 36 39  1  0
 35 40  1  0
 40 41  1  0
 41 42  1  0
 41 43  1  0
 40 44  2  0
 44 45  1  0
 20 46  2  0
 46 47  1  0
 12 48  2  0
 48 49  1  0
 48  5  1  0
 46 13  1  0
 44 21  1  0
 31 22  1  0
M  CHG  1  44   1
M  END
>  <score>  (419) 
5.08286

$$$$

     RDKit          3D

 45 48  0  0  0  0  0  0  0  0999 V2000
   10.0413   -7.8371   -2.0298 H   0  0  0  0  0  0  0  0  0  0  0  0
   11.0522   -8.1450   -2.2667 C   0  0  0  0  0  0  0  0  0  0  0  0
   12.0606   -7.2881   -2.0117 N   0  0  0  0  0  0  0  0  0  0  0  0
   13.3327   -7.7062   -2.2172 C   0  0  0  0  0  0  0  0  0  0  0  0
   14.4548   -6.8518   -1.7958 C   0  0  0  0  0  0  0  0  0  0  0  0
   15.7108   -7.3797   -1.4261 C   0  0  0  0  0  0  0  0  0  0  0  0
   15.9088   -8.4421   -1.5219 H   0  0  0  0  0  0  0  0  0  0  0  0
   16.6933   -6.5600   -0.8500 C   0  0  0  0  0  0  0  0  0  0  0  0
   17.6484   -6.9837   -0.5416 H   0  0  0  0  0  0  0  0  0  0  0  0
   16.4292   -5.2021   -0.6343 C   0  0  0  0  0  0  0  0  0  0  0  0
   17.1833   -4.5827   -0.1499 H   0  0  0  0  0  0  0  0  0  0  0  0
   15.1945   -4.6540   -1.0173 C   0  0  0  0  0  0  0  0  0  0  0  0
   14.8449   -3.2052   -0.7372 C   0  0  0  0  0  0  0  0  0  0  0  0
   15.4058   -2.2278   -1.7586 C   0  0  0  0  0  0  0  0  0  0  0  0
   15.9443   -2.6451   -2.9907 C   0  0  0  0  0  0  0  0  0  0  0  0
   15.9932   -3.7035   -3.2340 H   0  0  0  0  0  0  0  0  0  0  0  0
   16.4183   -1.7020   -3.9131 C   0  0  0  0  0  0  0  0  0  0  0  0
   16.8393   -2.0238   -4.8591 H   0  0  0  0  0  0  0  0  0  0  0  0
   16.3522   -0.3368   -3.6216 C   0  0  0  0  0  0  0  0  0  0  0  0
   16.7238    0.3935   -4.3341 H   0  0  0  0  0  0  0  0  0  0  0  0
   15.8020    0.0864   -2.4102 C   0  0  0  0  0  0  0  0  0  0  0  0
   15.7401    1.1434   -2.1750 H   0  0  0  0  0  0  0  0  0  0  0  0
   15.3287   -0.8523   -1.4913 C   0  0  0  0  0  0  0  0  0  0  0  0
   14.8940   -0.5158   -0.5540 H   0  0  0  0  0  0  0  0  0  0  0  0
   13.3237   -3.0000   -0.5739 C   0  0  0  0  0  0  0  0  0  0  0  0
   12.4602   -3.1116   -1.4414 O   0  0  0  0  0  0  0  0  0  0  0  0
   13.0480   -2.6531    0.7325 N   0  0  0  0  0  0  0  0  0  0  0  0
   11.7389   -2.3073    1.2851 C   0  0  0  0  0  0  0  0  0  0  0  0
   10.9414   -2.4792    0.5525 H   0  0  0  0  0  0  0  0  0  0  0  0
   11.7159   -1.2508    1.5718 H   0  0  0  0  0  0  0  0  0  0  0  0
   11.5198   -2.9145    2.1703 H   0  0  0  0  0  0  0  0  0  0  0  0
   14.2536   -2.5936    1.3943 C   0  0  0  0  0  0  0  0  0  0  0  0
   14.4252   -2.2883    2.7082 N   0  0  0  0  0  0  0  0  0  0  0  0
   15.3626   -2.3161    3.1046 H   0  0  0  0  0  0  0  0  0  0  0  0
   13.6106   -2.1174    3.2957 H   0  0  0  0  0  0  0  0  0  0  0  0
   15.2638   -2.8679    0.6360 N   0  0  0  0  0  4  0  0  0  0  0  0
   16.2249   -2.9508    0.9710 H   0  0  0  0  0  0  0  0  0  0  0  0
   14.2416   -5.4821   -1.6189 C   0  0  0  0  0  0  0  0  0  0  0  0
   13.2849   -5.0517   -1.8952 H   0  0  0  0  0  0  0  0  0  0  0  0
   13.5951   -8.9868   -2.7115 C   0  0  0  0  0  0  0  0  0  0  0  0
   14.6320   -9.2643   -2.8147 H   0  0  0  0  0  0  0  0  0  0  0  0
   12.5580   -9.8696   -3.0005 C   0  0  0  0  0  0  0  0  0  0  0  0
   12.7568  -10.8786   -3.3512 H   0  0  0  0  0  0  0  0  0  0  0  0
   11.2529   -9.4383   -2.7773 C   0  0  0  0  0  0  0  0  0  0  0  0
   10.2026  -10.2538   -3.0234 F   0  0  0  0  0  0  0  0  0  0  0  0
  1  2  1  0
  2  3  2  0
  3  4  1  0
  4  5  1  0
  5  6  2  0
  6  7  1  0
  6  8  1  0
  8  9  1  0
  8 10  2  0
 10 11  1  0
 10 12  1  0
 12 13  1  0
 13 14  1  0
 14 15  2  0
 15 16  1  0
 15 17  1  0
 17 18  1  0
 17 19  2  0
 19 20  1  0
 19 21  1  0
 21 22  1  0
 21 23  2  0
 23 24  1  0
 13 25  1  0
 25 26  2  0
 25 27  1  0
 27 28  1  0
 28 29  1  0
 28 30  1  0
 28 31  1  0
 27 32  1  0
 32 33  1  0
 33 34  1  0
 33 35  1  0
 32 36  2  0
 36 37  1  0
 12 38  2  0
 38 39  1  0
  4 40  2  0
 40 41  1  0
 40 42  1  0
 42 43  1  0
 42 44  2  0
 44 45  1  0
 44  2  1  0
 38  5  1  0
 36 13  1  0
 23 14  1  0
M  CHG  1  36   1
M  END
>  <score>  (420) 
5.0822

$$$$

     RDKit          3D

 40 42  0  0  0  0  0  0  0  0999 V2000
   13.2143   -9.1975   -0.6223 H   0  0  0  0  0  0  0  0  0  0  0  0
   12.5217   -8.5571   -1.5945 S   0  0  0  0  0  0  0  0  0  0  0  0
   13.8581   -7.8014   -2.6354 C   0  0  0  0  0  0  0  0  0  0  0  0
   14.4602   -8.5656   -3.1290 H   0  0  0  0  0  0  0  0  0  0  0  0
   13.4315   -7.1905   -3.4219 H   0  0  0  0  0  0  0  0  0  0  0  0
   14.7562   -6.8997   -1.8633 C   0  0  0  0  0  0  0  0  0  0  0  0
   15.9713   -7.3837   -1.3792 C   0  0  0  0  0  0  0  0  0  0  0  0
   16.2177   -8.4304   -1.5238 H   0  0  0  0  0  0  0  0  0  0  0  0
   16.8495   -6.5284   -0.7135 C   0  0  0  0  0  0  0  0  0  0  0  0
   17.8025   -6.9010   -0.3512 H   0  0  0  0  0  0  0  0  0  0  0  0
   16.4976   -5.1863   -0.5280 C   0  0  0  0  0  0  0  0  0  0  0  0
   17.1777   -4.5036   -0.0259 H   0  0  0  0  0  0  0  0  0  0  0  0
   15.2606   -4.6945   -0.9835 C   0  0  0  0  0  0  0  0  0  0  0  0
   14.8487   -3.2518   -0.7374 C   0  0  0  0  0  0  0  0  0  0  0  0
   15.3962   -2.2588   -1.7597 C   0  0  0  0  0  0  0  0  0  0  0  0
   15.9357   -2.6678   -2.9944 C   0  0  0  0  0  0  0  0  0  0  0  0
   15.9893   -3.7274   -3.2326 H   0  0  0  0  0  0  0  0  0  0  0  0
   16.4116   -1.7182   -3.9145 C   0  0  0  0  0  0  0  0  0  0  0  0
   16.8366   -2.0316   -4.8648 H   0  0  0  0  0  0  0  0  0  0  0  0
   16.3496   -0.3518   -3.6093 C   0  0  0  0  0  0  0  0  0  0  0  0
   16.7265    0.3813   -4.3166 H   0  0  0  0  0  0  0  0  0  0  0  0
   15.7925    0.0726   -2.3987 C   0  0  0  0  0  0  0  0  0  0  0  0
   15.7332    1.1339   -2.1593 H   0  0  0  0  0  0  0  0  0  0  0  0
   15.3124   -0.8790   -1.4906 C   0  0  0  0  0  0  0  0  0  0  0  0
   14.8785   -0.5463   -0.5520 H   0  0  0  0  0  0  0  0  0  0  0  0
   13.3217   -3.0622   -0.5808 C   0  0  0  0  0  0  0  0  0  0  0  0
   12.4587   -3.1696   -1.4537 O   0  0  0  0  0  0  0  0  0  0  0  0
   13.0422   -2.6886    0.7193 N   0  0  0  0  0  0  0  0  0  0  0  0
   11.7392   -2.3178    1.2790 C   0  0  0  0  0  0  0  0  0  0  0  0
   11.5051   -2.9113    2.1688 H   0  0  0  0  0  0  0  0  0  0  0  0
   10.9354   -2.4784    0.5561 H   0  0  0  0  0  0  0  0  0  0  0  0
   11.7281   -1.2612    1.5622 H   0  0  0  0  0  0  0  0  0  0  0  0
   14.2489   -2.6087    1.3818 C   0  0  0  0  0  0  0  0  0  0  0  0
   14.4243   -2.2697    2.6848 N   0  0  0  0  0  0  0  0  0  0  0  0
   13.6135   -2.1200    3.2805 H   0  0  0  0  0  0  0  0  0  0  0  0
   15.3626   -2.3125    3.0838 H   0  0  0  0  0  0  0  0  0  0  0  0
   15.2582   -2.8947    0.6307 N   0  0  0  0  0  4  0  0  0  0  0  0
   16.2158   -2.9914    0.9730 H   0  0  0  0  0  0  0  0  0  0  0  0
   14.3992   -5.5612   -1.6665 C   0  0  0  0  0  0  0  0  0  0  0  0
   13.4382   -5.2064   -2.0344 H   0  0  0  0  0  0  0  0  0  0  0  0
  1  2  1  0
  2  3  1  0
  3  4  1  0
  3  5  1  0
  3  6  1  0
  6  7  2  0
  7  8  1  0
  7  9  1  0
  9 10  1  0
  9 11  2  0
 11 12  1  0
 11 13  1  0
 13 14  1  0
 14 15  1  0
 15 16  2  0
 16 17  1  0
 16 18  1  0
 18 19  1  0
 18 20  2  0
 20 21  1  0
 20 22  1  0
 22 23  1  0
 22 24  2  0
 24 25  1  0
 14 26  1  0
 26 27  2  0
 26 28  1  0
 28 29  1  0
 29 30  1  0
 29 31  1  0
 29 32  1  0
 28 33  1  0
 33 34  1  0
 34 35  1  0
 34 36  1  0
 33 37  2  0
 37 38  1  0
 13 39  2  0
 39 40  1  0
 39  6  1  0
 37 14  1  0
 24 15  1  0
M  CHG  1  37   1
M  END
>  <score>  (421) 
5.08022

$$$$

     RDKit          3D

 45 48  0  0  0  0  0  0  0  0999 V2000
   10.6649  -10.4805   -2.7183 H   0  0  0  0  0  0  0  0  0  0  0  0
   11.4248   -9.7205   -2.5546 C   0  0  0  0  0  0  0  0  0  0  0  0
   12.7208  -10.0502   -2.7213 N   0  0  0  0  0  0  0  0  0  0  0  0
   13.6495   -9.1088   -2.4727 C   0  0  0  0  0  0  0  0  0  0  0  0
   14.6907   -9.3980   -2.5514 H   0  0  0  0  0  0  0  0  0  0  0  0
   13.3372   -7.8003   -2.0535 C   0  0  0  0  0  0  0  0  0  0  0  0
   14.4104   -6.8448   -1.7025 C   0  0  0  0  0  0  0  0  0  0  0  0
   15.7101   -7.3049   -1.4452 C   0  0  0  0  0  0  0  0  0  0  0  0
   15.9461   -8.3536   -1.5959 H   0  0  0  0  0  0  0  0  0  0  0  0
   16.6912   -6.4342   -0.9579 C   0  0  0  0  0  0  0  0  0  0  0  0
   17.6897   -6.8043   -0.7447 H   0  0  0  0  0  0  0  0  0  0  0  0
   16.3835   -5.0900   -0.7177 C   0  0  0  0  0  0  0  0  0  0  0  0
   17.1448   -4.4241   -0.3196 H   0  0  0  0  0  0  0  0  0  0  0  0
   15.1048   -4.5850   -1.0028 C   0  0  0  0  0  0  0  0  0  0  0  0
   14.7696   -3.1162   -0.7313 C   0  0  0  0  0  0  0  0  0  0  0  0
   15.3882   -2.1371   -1.7290 C   0  0  0  0  0  0  0  0  0  0  0  0
   15.9332   -2.5694   -2.9523 C   0  0  0  0  0  0  0  0  0  0  0  0
   15.9680   -3.6313   -3.1774 H   0  0  0  0  0  0  0  0  0  0  0  0
   16.4414   -1.6499   -3.8839 C   0  0  0  0  0  0  0  0  0  0  0  0
   16.8693   -2.0018   -4.8193 H   0  0  0  0  0  0  0  0  0  0  0  0
   16.4067   -0.2778   -3.6097 C   0  0  0  0  0  0  0  0  0  0  0  0
   16.7933    0.4317   -4.3398 H   0  0  0  0  0  0  0  0  0  0  0  0
   15.8612    0.1682   -2.4018 C   0  0  0  0  0  0  0  0  0  0  0  0
   15.8391    1.2320   -2.1830 H   0  0  0  0  0  0  0  0  0  0  0  0
   15.3551   -0.7535   -1.4762 C   0  0  0  0  0  0  0  0  0  0  0  0
   14.9377   -0.3842   -0.5457 H   0  0  0  0  0  0  0  0  0  0  0  0
   13.2494   -2.8861   -0.6385 C   0  0  0  0  0  0  0  0  0  0  0  0
   12.4287   -2.9885   -1.5468 O   0  0  0  0  0  0  0  0  0  0  0  0
   12.9004   -2.6279    0.6719 N   0  0  0  0  0  0  0  0  0  0  0  0
   11.5701   -2.2454    1.1414 C   0  0  0  0  0  0  0  0  0  0  0  0
   10.8402   -2.3670    0.3349 H   0  0  0  0  0  0  0  0  0  0  0  0
   11.5654   -1.1981    1.4645 H   0  0  0  0  0  0  0  0  0  0  0  0
   11.2408   -2.8696    1.9784 H   0  0  0  0  0  0  0  0  0  0  0  0
   14.0676   -2.6038    1.4051 C   0  0  0  0  0  0  0  0  0  0  0  0
   14.1433   -2.4184    2.7557 N   0  0  0  0  0  0  0  0  0  0  0  0
   15.0507   -2.2366    3.1852 H   0  0  0  0  0  0  0  0  0  0  0  0
   13.2899   -2.2031    3.2696 H   0  0  0  0  0  0  0  0  0  0  0  0
   15.1169   -2.7993    0.6709 N   0  0  0  0  0  4  0  0  0  0  0  0
   16.0618   -2.8585    1.0477 H   0  0  0  0  0  0  0  0  0  0  0  0
   14.1426   -5.4746   -1.5303 C   0  0  0  0  0  0  0  0  0  0  0  0
   13.1539   -5.1107   -1.7896 H   0  0  0  0  0  0  0  0  0  0  0  0
   11.9811   -7.4732   -1.8723 C   0  0  0  0  0  0  0  0  0  0  0  0
   11.6892   -6.5048   -1.4668 H   0  0  0  0  0  0  0  0  0  0  0  0
   11.0100   -8.4479   -2.1325 C   0  0  0  0  0  0  0  0  0  0  0  0
    9.6939   -8.1982   -1.9216 F   0  0  0  0  0  0  0  0  0  0  0  0
  1  2  1  0
  2  3  2  0
  3  4  1  0
  4  5  1  0
  4  6  2  0
  6  7  1  0
  7  8  2  0
  8  9  1  0
  8 10  1  0
 10 11  1  0
 10 12  2  0
 12 13  1  0
 12 14  1  0
 14 15  1  0
 15 16  1  0
 16 17  2  0
 17 18  1  0
 17 19  1  0
 19 20  1  0
 19 21  2  0
 21 22  1  0
 21 23  1  0
 23 24  1  0
 23 25  2  0
 25 26  1  0
 15 27  1  0
 27 28  2  0
 27 29  1  0
 29 30  1  0
 30 31  1  0
 30 32  1  0
 30 33  1  0
 29 34  1  0
 34 35  1  0
 35 36  1  0
 35 37  1  0
 34 38  2  0
 38 39  1  0
 14 40  2  0
 40 41  1  0
  6 42  1  0
 42 43  1  0
 42 44  2  0
 44 45  1  0
 44  2  1  0
 40  7  1  0
 38 15  1  0
 25 16  1  0
M  CHG  1  38   1
M  END
>  <score>  (422) 
5.07382

$$$$

     RDKit          3D

 46 48  0  0  0  0  0  0  0  0999 V2000
   16.0875   -8.3430   -1.7053 H   0  0  0  0  0  0  0  0  0  0  0  0
   15.8874   -7.2903   -1.5262 C   0  0  0  0  0  0  0  0  0  0  0  0
   16.8062   -6.4981   -0.8268 C   0  0  0  0  0  0  0  0  0  0  0  0
   17.7357   -6.9347   -0.4728 H   0  0  0  0  0  0  0  0  0  0  0  0
   16.5194   -5.1498   -0.5649 C   0  0  0  0  0  0  0  0  0  0  0  0
   17.2310   -4.5429   -0.0125 H   0  0  0  0  0  0  0  0  0  0  0  0
   15.3061   -4.5829   -0.9912 C   0  0  0  0  0  0  0  0  0  0  0  0
   14.9161   -3.1498   -0.6555 C   0  0  0  0  0  0  0  0  0  0  0  0
   15.3383   -2.1209   -1.7007 C   0  0  0  0  0  0  0  0  0  0  0  0
   16.0151   -2.4845   -2.8737 C   0  0  0  0  0  0  0  0  0  0  0  0
   16.2918   -3.5248   -3.0228 H   0  0  0  0  0  0  0  0  0  0  0  0
   16.2915   -1.5284   -3.8611 C   0  0  0  0  0  0  0  0  0  0  0  0
   16.8107   -1.8226   -4.7663 H   0  0  0  0  0  0  0  0  0  0  0  0
   15.8826   -0.2010   -3.7012 C   0  0  0  0  0  0  0  0  0  0  0  0
   16.0941    0.5098   -4.5005 H   0  0  0  0  0  0  0  0  0  0  0  0
   15.2202    0.1887   -2.5242 C   0  0  0  0  0  0  0  0  0  0  0  0
   14.7919    1.5806   -2.3164 C   0  0  0  0  0  0  0  0  0  0  0  0
   14.1236    2.1385   -3.1794 O   0  0  0  0  0  0  0  0  0  0  0  0
   15.1377    2.2540   -1.1448 N   0  0  0  0  0  0  0  0  0  0  0  0
   14.6943    3.6299   -0.9085 C   0  0  0  0  0  0  0  0  0  0  0  0
   15.2064    4.3205   -1.5845 H   0  0  0  0  0  0  0  0  0  0  0  0
   13.6143    3.7306   -1.0607 H   0  0  0  0  0  0  0  0  0  0  0  0
   14.9051    3.9340    0.1191 H   0  0  0  0  0  0  0  0  0  0  0  0
   16.1559    1.6644   -0.2754 C   0  0  0  0  0  0  0  0  0  0  0  0
   15.8992    0.6378    0.0094 H   0  0  0  0  0  0  0  0  0  0  0  0
   16.2780    2.2469    0.6417 H   0  0  0  0  0  0  0  0  0  0  0  0
   17.1099    1.6444   -0.8104 H   0  0  0  0  0  0  0  0  0  0  0  0
   14.9601   -0.7783   -1.5346 C   0  0  0  0  0  0  0  0  0  0  0  0
   14.4327   -0.5064   -0.6214 H   0  0  0  0  0  0  0  0  0  0  0  0
   13.3926   -3.0415   -0.4395 C   0  0  0  0  0  0  0  0  0  0  0  0
   12.5015   -3.2760   -1.2520 O   0  0  0  0  0  0  0  0  0  0  0  0
   13.1342   -2.5804    0.8305 N   0  0  0  0  0  0  0  0  0  0  0  0
   11.8129   -2.2694    1.3725 C   0  0  0  0  0  0  0  0  0  0  0  0
   11.6009   -2.8768    2.2593 H   0  0  0  0  0  0  0  0  0  0  0  0
   11.7440   -1.2094    1.6415 H   0  0  0  0  0  0  0  0  0  0  0  0
   11.0366   -2.4778    0.6266 H   0  0  0  0  0  0  0  0  0  0  0  0
   14.3483   -2.4689    1.4675 C   0  0  0  0  0  0  0  0  0  0  0  0
   14.5194   -2.1255    2.7725 N   0  0  0  0  0  0  0  0  0  0  0  0
   15.4499   -2.2186    3.1749 H   0  0  0  0  0  0  0  0  0  0  0  0
   13.7052   -2.0949    3.3807 H   0  0  0  0  0  0  0  0  0  0  0  0
   15.3481   -2.7629    0.7059 N   0  0  0  0  0  4  0  0  0  0  0  0
   16.2968   -2.9008    1.0613 H   0  0  0  0  0  0  0  0  0  0  0  0
   14.4137   -5.3859   -1.7220 C   0  0  0  0  0  0  0  0  0  0  0  0
   13.4782   -4.9676   -2.0776 H   0  0  0  0  0  0  0  0  0  0  0  0
   14.6935   -6.7281   -1.9825 C   0  0  0  0  0  0  0  0  0  0  0  0
   13.9690   -7.3304   -2.5220 H   0  0  0  0  0  0  0  0  0  0  0  0
  1  2  1  0
  2  3  2  0
  3  4  1  0
  3  5  1  0
  5  6  1  0
  5  7  2  0
  7  8  1  0
  8  9  1  0
  9 10  2  0
 10 11  1  0
 10 12  1  0
 12 13  1  0
 12 14  2  0
 14 15  1  0
 14 16  1  0
 16 17  1  0
 17 18  2  0
 17 19  1  0
 19 20  1  0
 20 21  1  0
 20 22  1  0
 20 23  1  0
 19 24  1  0
 24 25  1  0
 24 26  1  0
 24 27  1  0
 16 28  2  0
 28 29  1  0
  8 30  1  0
 30 31  2  0
 30 32  1  0
 32 33  1  0
 33 34  1  0
 33 35  1  0
 33 36  1  0
 32 37  1  0
 37 38  1  0
 38 39  1  0
 38 40  1  0
 37 41  2  0
 41 42  1  0
  7 43  1  0
 43 44  1  0
 43 45  2  0
 45 46  1  0
 45  2  1  0
 41  8  1  0
 28  9  1  0
M  CHG  1  41   1
M  END
>  <score>  (423) 
5.06505

$$$$

     RDKit          3D

 50 53  0  0  0  0  0  0  0  0999 V2000
   13.6170   -9.5306   -2.0773 H   0  0  0  0  0  0  0  0  0  0  0  0
   12.7055   -8.9502   -1.9671 C   0  0  0  0  0  0  0  0  0  0  0  0
   12.7787   -7.6307   -1.6240 C   0  0  0  0  0  0  0  0  0  0  0  0
   11.8567   -7.0690   -1.5229 H   0  0  0  0  0  0  0  0  0  0  0  0
   14.0112   -6.9119   -1.4183 C   0  0  0  0  0  0  0  0  0  0  0  0
   15.2764   -7.5114   -1.4106 C   0  0  0  0  0  0  0  0  0  0  0  0
   15.3658   -8.5714   -1.6290 H   0  0  0  0  0  0  0  0  0  0  0  0
   16.4067   -6.7308   -1.1371 C   0  0  0  0  0  0  0  0  0  0  0  0
   17.3986   -7.1786   -1.1531 H   0  0  0  0  0  0  0  0  0  0  0  0
   16.2504   -5.3659   -0.8417 C   0  0  0  0  0  0  0  0  0  0  0  0
   17.1136   -4.7688   -0.5691 H   0  0  0  0  0  0  0  0  0  0  0  0
   14.9820   -4.7619   -0.8739 C   0  0  0  0  0  0  0  0  0  0  0  0
   14.7715   -3.2947   -0.5482 C   0  0  0  0  0  0  0  0  0  0  0  0
   15.3562   -2.3644   -1.5911 C   0  0  0  0  0  0  0  0  0  0  0  0
   15.8642   -2.8441   -2.8114 C   0  0  0  0  0  0  0  0  0  0  0  0
   15.8540   -3.9113   -3.0151 H   0  0  0  0  0  0  0  0  0  0  0  0
   16.3798   -1.9581   -3.7619 C   0  0  0  0  0  0  0  0  0  0  0  0
   16.7661   -2.3348   -4.7033 H   0  0  0  0  0  0  0  0  0  0  0  0
   16.3884   -0.5849   -3.5015 C   0  0  0  0  0  0  0  0  0  0  0  0
   16.7949    0.0995   -4.2382 H   0  0  0  0  0  0  0  0  0  0  0  0
   15.8638   -0.0944   -2.3018 C   0  0  0  0  0  0  0  0  0  0  0  0
   15.8534    0.9732   -2.1049 H   0  0  0  0  0  0  0  0  0  0  0  0
   15.3453   -0.9809   -1.3557 C   0  0  0  0  0  0  0  0  0  0  0  0
   14.9321   -0.5954   -0.4264 H   0  0  0  0  0  0  0  0  0  0  0  0
   13.2878   -2.9430   -0.3128 C   0  0  0  0  0  0  0  0  0  0  0  0
   12.3604   -3.0333   -1.1153 O   0  0  0  0  0  0  0  0  0  0  0  0
   13.1146   -2.5353    0.9901 N   0  0  0  0  0  0  0  0  0  0  0  0
   11.8673   -2.0936    1.6063 C   0  0  0  0  0  0  0  0  0  0  0  0
   11.6874   -2.6395    2.5384 H   0  0  0  0  0  0  0  0  0  0  0  0
   11.9045   -1.0226    1.8262 H   0  0  0  0  0  0  0  0  0  0  0  0
   11.0191   -2.2728    0.9376 H   0  0  0  0  0  0  0  0  0  0  0  0
   14.3529   -2.5532    1.5831 C   0  0  0  0  0  0  0  0  0  0  0  0
   14.6019   -2.1373    2.8516 N   0  0  0  0  0  0  0  0  0  0  0  0
   15.5059   -2.3681    3.2497 H   0  0  0  0  0  0  0  0  0  0  0  0
   13.8138   -1.9706    3.4717 H   0  0  0  0  0  0  0  0  0  0  0  0
   15.2825   -2.9966    0.8035 N   0  0  0  0  0  4  0  0  0  0  0  0
   16.2667   -3.0720    1.0666 H   0  0  0  0  0  0  0  0  0  0  0  0
   13.8817   -5.5487   -1.2064 C   0  0  0  0  0  0  0  0  0  0  0  0
   12.8924   -5.1088   -1.2833 H   0  0  0  0  0  0  0  0  0  0  0  0
   11.4208   -9.5389   -2.3038 C   0  0  0  0  0  0  0  0  0  0  0  0
   10.2044   -8.8849   -2.0722 C   0  0  0  0  0  0  0  0  0  0  0  0
   10.2170   -7.9247   -1.5681 H   0  0  0  0  0  0  0  0  0  0  0  0
    9.0067   -9.4387   -2.5340 C   0  0  0  0  0  0  0  0  0  0  0  0
    8.0768   -8.8935   -2.3977 H   0  0  0  0  0  0  0  0  0  0  0  0
    9.0167  -10.6724   -3.1952 C   0  0  0  0  0  0  0  0  0  0  0  0
    8.0930  -11.0981   -3.5740 H   0  0  0  0  0  0  0  0  0  0  0  0
   10.2294  -11.3323   -3.4117 C   0  0  0  0  0  0  0  0  0  0  0  0
   10.2622  -12.2592   -3.9730 H   0  0  0  0  0  0  0  0  0  0  0  0
   11.4193  -10.7537   -2.9686 C   0  0  0  0  0  0  0  0  0  0  0  0
   12.3762  -11.2095   -3.1713 H   0  0  0  0  0  0  0  0  0  0  0  0
  1  2  1  0
  2  3  2  3
  3  4  1  0
  3  5  1  0
  5  6  2  0
  6  7  1  0
  6  8  1  0
  8  9  1  0
  8 10  2  0
 10 11  1  0
 10 12  1  0
 12 13  1  0
 13 14  1  0
 14 15  2  0
 15 16  1  0
 15 17  1  0
 17 18  1  0
 17 19  2  0
 19 20  1  0
 19 21  1  0
 21 22  1  0
 21 23  2  0
 23 24  1  0
 13 25  1  0
 25 26  2  0
 25 27  1  0
 27 28  1  0
 28 29  1  0
 28 30  1  0
 28 31  1  0
 27 32  1  0
 32 33  1  0
 33 34  1  0
 33 35  1  0
 32 36  2  0
 36 37  1  0
 12 38  2  0
 38 39  1  0
  2 40  1  0
 40 41  2  0
 41 42  1  0
 41 43  1  0
 43 44  1  0
 43 45  2  0
 45 46  1  0
 45 47  1  0
 47 48  1  0
 47 49  2  0
 49 50  1  0
 38  5  1  0
 49 40  1  0
 36 13  1  0
 23 14  1  0
M  CHG  1  36   1
M  END
>  <score>  (424) 
5.05905

$$$$

     RDKit          3D

 46 48  0  0  0  0  0  0  0  0999 V2000
   16.1246   -8.4889   -1.6111 H   0  0  0  0  0  0  0  0  0  0  0  0
   15.8535   -7.4446   -1.4706 C   0  0  0  0  0  0  0  0  0  0  0  0
   16.7273   -6.5858   -0.8002 C   0  0  0  0  0  0  0  0  0  0  0  0
   17.6744   -6.9553   -0.4185 H   0  0  0  0  0  0  0  0  0  0  0  0
   16.3882   -5.2420   -0.6097 C   0  0  0  0  0  0  0  0  0  0  0  0
   17.0683   -4.5920   -0.0671 H   0  0  0  0  0  0  0  0  0  0  0  0
   15.1693   -4.7200   -1.0725 C   0  0  0  0  0  0  0  0  0  0  0  0
   14.8119   -3.2541   -0.7848 C   0  0  0  0  0  0  0  0  0  0  0  0
   15.3888   -2.2489   -1.7808 C   0  0  0  0  0  0  0  0  0  0  0  0
   15.9443   -2.6415   -3.0094 C   0  0  0  0  0  0  0  0  0  0  0  0
   16.0052   -3.6933   -3.2649 H   0  0  0  0  0  0  0  0  0  0  0  0
   16.4225   -1.6916   -3.9210 C   0  0  0  0  0  0  0  0  0  0  0  0
   16.8561   -2.0056   -4.8641 H   0  0  0  0  0  0  0  0  0  0  0  0
   16.3427   -0.3286   -3.6270 C   0  0  0  0  0  0  0  0  0  0  0  0
   16.6963    0.4078   -4.3437 H   0  0  0  0  0  0  0  0  0  0  0  0
   15.7883    0.0913   -2.4138 C   0  0  0  0  0  0  0  0  0  0  0  0
   15.6615    1.5651   -2.1061 C   0  0  0  0  0  0  0  0  0  0  0  0
   16.4383    2.1351   -2.6192 H   0  0  0  0  0  0  0  0  0  0  0  0
   15.7870    1.7469   -1.0355 H   0  0  0  0  0  0  0  0  0  0  0  0
   14.2993    2.0776   -2.5612 C   0  0  0  0  0  0  0  0  0  0  0  0
   13.5095    1.5249   -2.0472 H   0  0  0  0  0  0  0  0  0  0  0  0
   14.1751    1.9164   -3.6364 H   0  0  0  0  0  0  0  0  0  0  0  0
   14.1832    3.4782   -2.2849 O   0  0  0  0  0  0  0  0  0  0  0  0
   13.5353    3.7620   -1.0370 C   0  0  0  0  0  0  0  0  0  0  0  0
   12.4944    3.4296   -1.0718 H   0  0  0  0  0  0  0  0  0  0  0  0
   13.5535    4.8387   -0.8277 H   0  0  0  0  0  0  0  0  0  0  0  0
   14.0289    3.2330   -0.2176 H   0  0  0  0  0  0  0  0  0  0  0  0
   15.3175   -0.8692   -1.5067 C   0  0  0  0  0  0  0  0  0  0  0  0
   14.8908   -0.5265   -0.5696 H   0  0  0  0  0  0  0  0  0  0  0  0
   13.2975   -3.0248   -0.6070 C   0  0  0  0  0  0  0  0  0  0  0  0
   12.4282   -3.0812   -1.4731 O   0  0  0  0  0  0  0  0  0  0  0  0
   13.0238   -2.6720    0.7006 N   0  0  0  0  0  0  0  0  0  0  0  0
   11.7194   -2.3132    1.2618 C   0  0  0  0  0  0  0  0  0  0  0  0
   10.9137   -2.4772    0.5415 H   0  0  0  0  0  0  0  0  0  0  0  0
   11.5033   -2.9159    2.1466 H   0  0  0  0  0  0  0  0  0  0  0  0
   11.6921   -1.2613    1.5570 H   0  0  0  0  0  0  0  0  0  0  0  0
   14.2227   -2.6305    1.3653 C   0  0  0  0  0  0  0  0  0  0  0  0
   14.3949   -2.3350    2.6879 N   0  0  0  0  0  0  0  0  0  0  0  0
   13.5803   -2.1271    3.2640 H   0  0  0  0  0  0  0  0  0  0  0  0
   15.3276   -2.3567    3.0938 H   0  0  0  0  0  0  0  0  0  0  0  0
   15.2201   -2.9062    0.5921 N   0  0  0  0  0  4  0  0  0  0  0  0
   16.1881   -2.9051    0.9010 H   0  0  0  0  0  0  0  0  0  0  0  0
   14.3014   -5.5933   -1.7674 C   0  0  0  0  0  0  0  0  0  0  0  0
   13.3530   -5.2412   -2.1641 H   0  0  0  0  0  0  0  0  0  0  0  0
   14.6428   -6.9443   -1.9608 C   0  0  0  0  0  0  0  0  0  0  0  0
   13.9731   -7.6181   -2.4885 H   0  0  0  0  0  0  0  0  0  0  0  0
  1  2  1  0
  2  3  2  0
  3  4  1  0
  3  5  1  0
  5  6  1  0
  5  7  2  0
  7  8  1  0
  8  9  1  0
  9 10  2  0
 10 11  1  0
 10 12  1  0
 12 13  1  0
 12 14  2  0
 14 15  1  0
 14 16  1  0
 16 17  1  0
 17 18  1  0
 17 19  1  0
 17 20  1  0
 20 21  1  0
 20 22  1  0
 20 23  1  0
 23 24  1  0
 24 25  1  0
 24 26  1  0
 24 27  1  0
 16 28  2  0
 28 29  1  0
  8 30  1  0
 30 31  2  0
 30 32  1  0
 32 33  1  0
 33 34  1  0
 33 35  1  0
 33 36  1  0
 32 37  1  0
 37 38  1  0
 38 39  1  0
 38 40  1  0
 37 41  2  0
 41 42  1  0
  7 43  1  0
 43 44  1  0
 43 45  2  0
 45 46  1  0
 45  2  1  0
 41  8  1  0
 28  9  1  0
M  CHG  1  41   1
M  END
>  <score>  (425) 
5.05139

$$$$

     RDKit          3D

 47 49  0  0  0  0  0  0  0  0999 V2000
   16.1251   -8.4893   -1.6109 H   0  0  0  0  0  0  0  0  0  0  0  0
   15.8537   -7.4451   -1.4704 C   0  0  0  0  0  0  0  0  0  0  0  0
   16.7270   -6.5863   -0.7998 C   0  0  0  0  0  0  0  0  0  0  0  0
   17.6748   -6.9552   -0.4187 H   0  0  0  0  0  0  0  0  0  0  0  0
   16.3873   -5.2425   -0.6097 C   0  0  0  0  0  0  0  0  0  0  0  0
   17.0685   -4.5931   -0.0677 H   0  0  0  0  0  0  0  0  0  0  0  0
   15.1682   -4.7203   -1.0726 C   0  0  0  0  0  0  0  0  0  0  0  0
   14.8111   -3.2531   -0.7848 C   0  0  0  0  0  0  0  0  0  0  0  0
   15.3887   -2.2471   -1.7815 C   0  0  0  0  0  0  0  0  0  0  0  0
   15.9447   -2.6417   -3.0098 C   0  0  0  0  0  0  0  0  0  0  0  0
   16.0054   -3.6942   -3.2649 H   0  0  0  0  0  0  0  0  0  0  0  0
   16.4231   -1.6903   -3.9203 C   0  0  0  0  0  0  0  0  0  0  0  0
   16.8576   -2.0039   -4.8641 H   0  0  0  0  0  0  0  0  0  0  0  0
   16.3385   -0.3268   -3.6263 C   0  0  0  0  0  0  0  0  0  0  0  0
   16.6969    0.4065   -4.3437 H   0  0  0  0  0  0  0  0  0  0  0  0
   15.7748    0.0984   -2.4184 C   0  0  0  0  0  0  0  0  0  0  0  0
   15.6636    1.5770   -2.1094 C   0  0  0  0  0  0  0  0  0  0  0  0
   15.6321    1.7396   -1.0296 H   0  0  0  0  0  0  0  0  0  0  0  0
   16.5495    2.0996   -2.4785 H   0  0  0  0  0  0  0  0  0  0  0  0
   14.4165    2.1997   -2.7504 C   0  0  0  0  0  0  0  0  0  0  0  0
   14.4378    3.2842   -2.6239 H   0  0  0  0  0  0  0  0  0  0  0  0
   14.4145    2.0025   -3.8221 H   0  0  0  0  0  0  0  0  0  0  0  0
   13.1279    1.6629   -2.1372 C   0  0  0  0  0  0  0  0  0  0  0  0
   13.0395    0.5876   -2.3179 H   0  0  0  0  0  0  0  0  0  0  0  0
   13.1313    1.8158   -1.0538 H   0  0  0  0  0  0  0  0  0  0  0  0
   11.9869    2.3684   -2.7343 N   0  0  0  0  0  0  0  0  0  0  0  0
   11.9404    2.2086   -3.7417 H   0  0  0  0  0  0  0  0  0  0  0  0
   12.0197    3.3668   -2.5205 H   0  0  0  0  0  0  0  0  0  0  0  0
   15.3126   -0.8659   -1.5085 C   0  0  0  0  0  0  0  0  0  0  0  0
   14.8892   -0.5291   -0.5676 H   0  0  0  0  0  0  0  0  0  0  0  0
   13.2967   -3.0214   -0.6078 C   0  0  0  0  0  0  0  0  0  0  0  0
   12.4280   -3.0814   -1.4747 O   0  0  0  0  0  0  0  0  0  0  0  0
   13.0227   -2.6714    0.7001 N   0  0  0  0  0  0  0  0  0  0  0  0
   11.7194   -2.3128    1.2618 C   0  0  0  0  0  0  0  0  0  0  0  0
   10.9142   -2.4761    0.5406 H   0  0  0  0  0  0  0  0  0  0  0  0
   11.6925   -1.2610    1.5577 H   0  0  0  0  0  0  0  0  0  0  0  0
   11.5024   -2.9166    2.1458 H   0  0  0  0  0  0  0  0  0  0  0  0
   14.2228   -2.6306    1.3657 C   0  0  0  0  0  0  0  0  0  0  0  0
   14.3938   -2.3364    2.6886 N   0  0  0  0  0  0  0  0  0  0  0  0
   13.5802   -2.1263    3.2644 H   0  0  0  0  0  0  0  0  0  0  0  0
   15.3270   -2.3566    3.0943 H   0  0  0  0  0  0  0  0  0  0  0  0
   15.2194   -2.9073    0.5925 N   0  0  0  0  0  4  0  0  0  0  0  0
   16.1885   -2.9023    0.8999 H   0  0  0  0  0  0  0  0  0  0  0  0
   14.3010   -5.5942   -1.7679 C   0  0  0  0  0  0  0  0  0  0  0  0
   13.3526   -5.2429   -2.1654 H   0  0  0  0  0  0  0  0  0  0  0  0
   14.6428   -6.9453   -1.9608 C   0  0  0  0  0  0  0  0  0  0  0  0
   13.9730   -7.6192   -2.4885 H   0  0  0  0  0  0  0  0  0  0  0  0
  1  2  1  0
  2  3  2  0
  3  4  1  0
  3  5  1  0
  5  6  1  0
  5  7  2  0
  7  8  1  0
  8  9  1  0
  9 10  2  0
 10 11  1  0
 10 12  1  0
 12 13  1  0
 12 14  2  0
 14 15  1  0
 14 16  1  0
 16 17  1  0
 17 18  1  0
 17 19  1  0
 17 20  1  0
 20 21  1  0
 20 22  1  0
 20 23  1  0
 23 24  1  0
 23 25  1  0
 23 26  1  0
 26 27  1  0
 26 28  1  0
 16 29  2  0
 29 30  1  0
  8 31  1  0
 31 32  2  0
 31 33  1  0
 33 34  1  0
 34 35  1  0
 34 36  1  0
 34 37  1  0
 33 38  1  0
 38 39  1  0
 39 40  1  0
 39 41  1  0
 38 42  2  0
 42 43  1  0
  7 44  1  0
 44 45  1  0
 44 46  2  0
 46 47  1  0
 46  2  1  0
 42  8  1  0
 29  9  1  0
M  CHG  1  42   1
M  END
>  <score>  (426) 
5.04143

$$$$

     RDKit          3D

 44 46  0  0  0  0  0  0  0  0999 V2000
   10.9384   -5.6999   -2.1697 H   0  0  0  0  0  0  0  0  0  0  0  0
   10.8378   -6.3859   -1.3316 C   0  0  0  0  0  0  0  0  0  0  0  0
   10.0248   -6.1878   -0.6335 H   0  0  0  0  0  0  0  0  0  0  0  0
   11.6937   -7.4613   -1.1708 C   0  0  0  0  0  0  0  0  0  0  0  0
   11.5306   -8.1248   -0.3234 H   0  0  0  0  0  0  0  0  0  0  0  0
   12.8301   -7.7675   -2.1349 C   0  0  0  0  0  0  0  0  0  0  0  0
   13.0130   -6.8986   -2.7793 H   0  0  0  0  0  0  0  0  0  0  0  0
   12.5389   -8.6164   -2.7718 H   0  0  0  0  0  0  0  0  0  0  0  0
   14.0626   -8.1154   -1.4732 O   0  0  0  0  0  0  0  0  0  0  0  0
   14.9216   -7.0751   -1.1928 C   0  0  0  0  0  0  0  0  0  0  0  0
   16.2597   -7.3581   -0.8947 C   0  0  0  0  0  0  0  0  0  0  0  0
   16.5780   -8.3932   -0.8854 H   0  0  0  0  0  0  0  0  0  0  0  0
   17.1719   -6.3338   -0.6038 C   0  0  0  0  0  0  0  0  0  0  0  0
   18.2182   -6.5578   -0.4010 H   0  0  0  0  0  0  0  0  0  0  0  0
   16.7248   -5.0113   -0.5446 C   0  0  0  0  0  0  0  0  0  0  0  0
   17.4146   -4.2227   -0.2398 H   0  0  0  0  0  0  0  0  0  0  0  0
   15.3859   -4.6975   -0.8393 C   0  0  0  0  0  0  0  0  0  0  0  0
   14.9027   -3.2662   -0.6847 C   0  0  0  0  0  0  0  0  0  0  0  0
   15.4127   -2.2783   -1.7324 C   0  0  0  0  0  0  0  0  0  0  0  0
   15.9385   -2.6875   -2.9721 C   0  0  0  0  0  0  0  0  0  0  0  0
   15.9903   -3.7461   -3.2143 H   0  0  0  0  0  0  0  0  0  0  0  0
   16.4048   -1.7383   -3.8954 C   0  0  0  0  0  0  0  0  0  0  0  0
   16.8226   -2.0556   -4.8445 H   0  0  0  0  0  0  0  0  0  0  0  0
   16.3417   -0.3736   -3.5984 C   0  0  0  0  0  0  0  0  0  0  0  0
   16.7178    0.3569   -4.3091 H   0  0  0  0  0  0  0  0  0  0  0  0
   15.7913    0.0446   -2.3871 C   0  0  0  0  0  0  0  0  0  0  0  0
   15.7332    1.1025   -2.1555 H   0  0  0  0  0  0  0  0  0  0  0  0
   15.3225   -0.8982   -1.4694 C   0  0  0  0  0  0  0  0  0  0  0  0
   14.8935   -0.5557   -0.5322 H   0  0  0  0  0  0  0  0  0  0  0  0
   13.3743   -3.1479   -0.5283 C   0  0  0  0  0  0  0  0  0  0  0  0
   12.5169   -3.3833   -1.3785 O   0  0  0  0  0  0  0  0  0  0  0  0
   13.0844   -2.7016    0.7460 N   0  0  0  0  0  0  0  0  0  0  0  0
   11.7766   -2.3287    1.2812 C   0  0  0  0  0  0  0  0  0  0  0  0
   11.5436   -2.9123    2.1785 H   0  0  0  0  0  0  0  0  0  0  0  0
   11.7663   -1.2661    1.5458 H   0  0  0  0  0  0  0  0  0  0  0  0
   10.9837   -2.5029    0.5463 H   0  0  0  0  0  0  0  0  0  0  0  0
   14.2833   -2.5564    1.4094 C   0  0  0  0  0  0  0  0  0  0  0  0
   14.4556   -2.1783    2.7025 N   0  0  0  0  0  0  0  0  0  0  0  0
   13.6420   -2.1209    3.3100 H   0  0  0  0  0  0  0  0  0  0  0  0
   15.3880   -2.2658    3.1083 H   0  0  0  0  0  0  0  0  0  0  0  0
   15.2990   -2.8382    0.6679 N   0  0  0  0  0  4  0  0  0  0  0  0
   16.2536   -2.9274    1.0249 H   0  0  0  0  0  0  0  0  0  0  0  0
   14.5024   -5.7393   -1.1808 C   0  0  0  0  0  0  0  0  0  0  0  0
   13.4618   -5.5417   -1.4084 H   0  0  0  0  0  0  0  0  0  0  0  0
  1  2  1  0
  2  3  1  0
  2  4  2  0
  4  5  1  0
  4  6  1  0
  6  7  1  0
  6  8  1  0
  6  9  1  0
  9 10  1  0
 10 11  2  0
 11 12  1  0
 11 13  1  0
 13 14  1  0
 13 15  2  0
 15 16  1  0
 15 17  1  0
 17 18  1  0
 18 19  1  0
 19 20  2  0
 20 21  1  0
 20 22  1  0
 22 23  1  0
 22 24  2  0
 24 25  1  0
 24 26  1  0
 26 27  1  0
 26 28  2  0
 28 29  1  0
 18 30  1  0
 30 31  2  0
 30 32  1  0
 32 33  1  0
 33 34  1  0
 33 35  1  0
 33 36  1  0
 32 37  1  0
 37 38  1  0
 38 39  1  0
 38 40  1  0
 37 41  2  0
 41 42  1  0
 17 43  2  0
 43 44  1  0
 43 10  1  0
 41 18  1  0
 28 19  1  0
M  CHG  1  41   1
M  END
>  <score>  (427) 
5.03354

$$$$

     RDKit          3D

 53 56  0  0  0  0  0  0  0  0999 V2000
   16.1912   -8.4996   -1.7565 H   0  0  0  0  0  0  0  0  0  0  0  0
   15.9257   -7.4729   -1.5200 C   0  0  0  0  0  0  0  0  0  0  0  0
   16.8052   -6.6686   -0.7866 C   0  0  0  0  0  0  0  0  0  0  0  0
   17.7589   -7.0680   -0.4539 H   0  0  0  0  0  0  0  0  0  0  0  0
   16.4616   -5.3450   -0.4847 C   0  0  0  0  0  0  0  0  0  0  0  0
   17.1540   -4.7259    0.0783 H   0  0  0  0  0  0  0  0  0  0  0  0
   15.2333   -4.8108   -0.9060 C   0  0  0  0  0  0  0  0  0  0  0  0
   14.8614   -3.3604   -0.6264 C   0  0  0  0  0  0  0  0  0  0  0  0
   15.3149   -2.4290   -1.7388 C   0  0  0  0  0  0  0  0  0  0  0  0
   16.1056   -2.8727   -2.8120 C   0  0  0  0  0  0  0  0  0  0  0  0
   16.4743   -3.8942   -2.8264 H   0  0  0  0  0  0  0  0  0  0  0  0
   16.4017   -2.0150   -3.8765 C   0  0  0  0  0  0  0  0  0  0  0  0
   16.9791   -2.3577   -4.7230 H   0  0  0  0  0  0  0  0  0  0  0  0
   15.9711   -0.6910   -3.8555 C   0  0  0  0  0  0  0  0  0  0  0  0
   16.2169   -0.0319   -4.6854 H   0  0  0  0  0  0  0  0  0  0  0  0
   15.2500   -0.2098   -2.7580 C   0  0  0  0  0  0  0  0  0  0  0  0
   14.8777    1.2415   -2.6891 C   0  0  0  0  0  0  0  0  0  0  0  0
   13.8721    1.3535   -2.2739 H   0  0  0  0  0  0  0  0  0  0  0  0
   14.8494    1.6466   -3.7025 H   0  0  0  0  0  0  0  0  0  0  0  0
   15.8468    1.9890   -1.8619 N   0  0  0  0  0  0  0  0  0  0  0  0
   15.4431    2.0560   -0.4383 C   0  0  0  0  0  0  0  0  0  0  0  0
   15.2896    1.0421   -0.0701 H   0  0  0  0  0  0  0  0  0  0  0  0
   14.4962    2.5992   -0.3914 H   0  0  0  0  0  0  0  0  0  0  0  0
   16.4227    2.8088    0.4893 C   0  0  0  0  0  0  0  0  0  0  0  0
   16.0026    2.8597    1.4969 H   0  0  0  0  0  0  0  0  0  0  0  0
   17.3646    2.2672    0.5586 H   0  0  0  0  0  0  0  0  0  0  0  0
   16.6676    4.1682   -0.0288 N   0  0  0  0  0  0  0  0  0  0  0  0
   17.3560    4.6736    0.5357 H   0  0  0  0  0  0  0  0  0  0  0  0
   17.0693    4.1298   -1.4450 C   0  0  0  0  0  0  0  0  0  0  0  0
   18.0769    3.7285   -1.5144 H   0  0  0  0  0  0  0  0  0  0  0  0
   17.0653    5.1313   -1.8343 H   0  0  0  0  0  0  0  0  0  0  0  0
   16.1370    3.3396   -2.3627 C   0  0  0  0  0  0  0  0  0  0  0  0
   16.6096    3.2848   -3.3490 H   0  0  0  0  0  0  0  0  0  0  0  0
   15.1980    3.8909   -2.4368 H   0  0  0  0  0  0  0  0  0  0  0  0
   14.8899   -1.0905   -1.7298 C   0  0  0  0  0  0  0  0  0  0  0  0
   14.2827   -0.7259   -0.9057 H   0  0  0  0  0  0  0  0  0  0  0  0
   13.3457   -3.1836   -0.4002 C   0  0  0  0  0  0  0  0  0  0  0  0
   12.4408   -3.4192   -1.1995 O   0  0  0  0  0  0  0  0  0  0  0  0
   13.1224   -2.6506    0.8499 N   0  0  0  0  0  0  0  0  0  0  0  0
   11.8289   -2.2645    1.4190 C   0  0  0  0  0  0  0  0  0  0  0  0
   11.6138   -2.8479    2.3214 H   0  0  0  0  0  0  0  0  0  0  0  0
   11.8187   -1.1999    1.6804 H   0  0  0  0  0  0  0  0  0  0  0  0
   11.0211   -2.4416    0.6988 H   0  0  0  0  0  0  0  0  0  0  0  0
   14.3523   -2.5145    1.4526 C   0  0  0  0  0  0  0  0  0  0  0  0
   14.5434   -2.0624    2.7179 N   0  0  0  0  0  0  0  0  0  0  0  0
   13.7317   -2.0332    3.3325 H   0  0  0  0  0  0  0  0  0  0  0  0
   15.4620   -2.2202    3.1285 H   0  0  0  0  0  0  0  0  0  0  0  0
   15.3310   -2.8898    0.6922 N   0  0  0  0  0  4  0  0  0  0  0  0
   16.3090   -2.8968    0.9881 H   0  0  0  0  0  0  0  0  0  0  0  0
   14.3648   -5.6262   -1.6520 C   0  0  0  0  0  0  0  0  0  0  0  0
   13.4187   -5.2279   -2.0058 H   0  0  0  0  0  0  0  0  0  0  0  0
   14.7051   -6.9484   -1.9558 C   0  0  0  0  0  0  0  0  0  0  0  0
   14.0221   -7.5644   -2.5330 H   0  0  0  0  0  0  0  0  0  0  0  0
  1  2  1  0
  2  3  2  0
  3  4  1  0
  3  5  1  0
  5  6  1  0
  5  7  2  0
  7  8  1  0
  8  9  1  0
  9 10  2  0
 10 11  1  0
 10 12  1  0
 12 13  1  0
 12 14  2  0
 14 15  1  0
 14 16  1  0
 16 17  1  0
 17 18  1  0
 17 19  1  0
 17 20  1  0
 20 21  1  0
 21 22  1  0
 21 23  1  0
 21 24  1  0
 24 25  1  0
 24 26  1  0
 24 27  1  0
 27 28  1  0
 27 29  1  0
 29 30  1  0
 29 31  1  0
 29 32  1  0
 32 33  1  0
 32 34  1  0
 16 35  2  0
 35 36  1  0
  8 37  1  0
 37 38  2  0
 37 39  1  0
 39 40  1  0
 40 41  1  0
 40 42  1  0
 40 43  1  0
 39 44  1  0
 44 45  1  0
 45 46  1  0
 45 47  1  0
 44 48  2  0
 48 49  1  0
  7 50  1  0
 50 51  1  0
 50 52  2  0
 52 53  1  0
 52  2  1  0
 48  8  1  0
 35  9  1  0
 32 20  1  0
M  CHG  1  48   1
M  END
>  <score>  (428) 
5.03317

$$$$

     RDKit          3D

 48 51  0  0  0  0  0  0  0  0999 V2000
   14.8177   -9.1233   -2.6615 H   0  0  0  0  0  0  0  0  0  0  0  0
   13.7631   -8.9426   -2.5337 C   0  0  0  0  0  0  0  0  0  0  0  0
   13.3527   -7.7331   -1.9633 C   0  0  0  0  0  0  0  0  0  0  0  0
   14.4146   -6.8179   -1.4921 C   0  0  0  0  0  0  0  0  0  0  0  0
   15.7037   -7.3092   -1.1921 C   0  0  0  0  0  0  0  0  0  0  0  0
   15.9097   -8.3765   -1.2371 H   0  0  0  0  0  0  0  0  0  0  0  0
   16.7235   -6.4475   -0.7773 C   0  0  0  0  0  0  0  0  0  0  0  0
   17.7067   -6.8398   -0.5252 H   0  0  0  0  0  0  0  0  0  0  0  0
   16.4652   -5.0818   -0.6368 C   0  0  0  0  0  0  0  0  0  0  0  0
   17.2528   -4.4172   -0.2915 H   0  0  0  0  0  0  0  0  0  0  0  0
   15.1830   -4.5707   -0.8869 C   0  0  0  0  0  0  0  0  0  0  0  0
   14.8746   -3.1025   -0.6451 C   0  0  0  0  0  0  0  0  0  0  0  0
   15.4327   -2.1608   -1.7024 C   0  0  0  0  0  0  0  0  0  0  0  0
   15.9491   -2.6171   -2.9311 C   0  0  0  0  0  0  0  0  0  0  0  0
   15.9813   -3.6834   -3.1434 H   0  0  0  0  0  0  0  0  0  0  0  0
   16.4183   -1.7025   -3.8859 C   0  0  0  0  0  0  0  0  0  0  0  0
   16.8182   -2.0531   -4.8324 H   0  0  0  0  0  0  0  0  0  0  0  0
   16.3678   -0.3282   -3.6267 C   0  0  0  0  0  0  0  0  0  0  0  0
   16.7366    0.3782   -4.3640 H   0  0  0  0  0  0  0  0  0  0  0  0
   15.8331    0.1362   -2.4224 C   0  0  0  0  0  0  0  0  0  0  0  0
   15.7765    1.2027   -2.2219 H   0  0  0  0  0  0  0  0  0  0  0  0
   15.3643   -0.7756   -1.4740 C   0  0  0  0  0  0  0  0  0  0  0  0
   14.9395   -0.4048   -0.5451 H   0  0  0  0  0  0  0  0  0  0  0  0
   13.3605   -2.8726   -0.4928 C   0  0  0  0  0  0  0  0  0  0  0  0
   12.4929   -3.0113   -1.3523 O   0  0  0  0  0  0  0  0  0  0  0  0
   13.0819   -2.5176    0.8089 N   0  0  0  0  0  0  0  0  0  0  0  0
   11.7530   -2.2608    1.3544 C   0  0  0  0  0  0  0  0  0  0  0  0
   11.5540   -2.8930    2.2271 H   0  0  0  0  0  0  0  0  0  0  0  0
   10.9844   -2.4750    0.6030 H   0  0  0  0  0  0  0  0  0  0  0  0
   11.6606   -1.2098    1.6454 H   0  0  0  0  0  0  0  0  0  0  0  0
   14.2820   -2.4719    1.4828 C   0  0  0  0  0  0  0  0  0  0  0  0
   14.4552   -2.2435    2.8147 N   0  0  0  0  0  0  0  0  0  0  0  0
   15.3971   -2.2301    3.1995 H   0  0  0  0  0  0  0  0  0  0  0  0
   13.6483   -2.0944    3.4166 H   0  0  0  0  0  0  0  0  0  0  0  0
   15.2963   -2.7246    0.7234 N   0  0  0  0  0  4  0  0  0  0  0  0
   16.2362   -2.8806    1.0925 H   0  0  0  0  0  0  0  0  0  0  0  0
   14.1688   -5.4506   -1.3086 C   0  0  0  0  0  0  0  0  0  0  0  0
   13.1640   -5.0751   -1.4803 H   0  0  0  0  0  0  0  0  0  0  0  0
   12.0377   -7.4503   -1.8281 N   0  0  0  0  0  0  0  0  0  0  0  0
   11.1243   -8.3638   -2.2041 C   0  0  0  0  0  0  0  0  0  0  0  0
    9.6646   -8.0826   -2.0116 C   0  0  0  0  0  0  0  0  0  0  0  0
    9.1563   -8.9715   -1.6332 H   0  0  0  0  0  0  0  0  0  0  0  0
    9.2169   -7.7990   -2.9685 H   0  0  0  0  0  0  0  0  0  0  0  0
    9.5089   -7.2870   -1.2780 H   0  0  0  0  0  0  0  0  0  0  0  0
   11.4989   -9.5927   -2.7573 C   0  0  0  0  0  0  0  0  0  0  0  0
   10.7436  -10.3116   -3.0497 H   0  0  0  0  0  0  0  0  0  0  0  0
   12.8400   -9.8973   -2.9283 C   0  0  0  0  0  0  0  0  0  0  0  0
   13.1454  -10.8500   -3.3532 H   0  0  0  0  0  0  0  0  0  0  0  0
  1  2  1  0
  2  3  2  0
  3  4  1  0
  4  5  2  0
  5  6  1  0
  5  7  1  0
  7  8  1  0
  7  9  2  0
  9 10  1  0
  9 11  1  0
 11 12  1  0
 12 13  1  0
 13 14  2  0
 14 15  1  0
 14 16  1  0
 16 17  1  0
 16 18  2  0
 18 19  1  0
 18 20  1  0
 20 21  1  0
 20 22  2  0
 22 23  1  0
 12 24  1  0
 24 25  2  0
 24 26  1  0
 26 27  1  0
 27 28  1  0
 27 29  1  0
 27 30  1  0
 26 31  1  0
 31 32  1  0
 32 33  1  0
 32 34  1  0
 31 35  2  0
 35 36  1  0
 11 37  2  0
 37 38  1  0
  3 39  1  0
 39 40  2  0
 40 41  1  0
 41 42  1  0
 41 43  1  0
 41 44  1  0
 40 45  1  0
 45 46  1  0
 45 47  2  0
 47 48  1  0
 47  2  1  0
 37  4  1  0
 35 12  1  0
 22 13  1  0
M  CHG  1  35   1
M  END
>  <score>  (429) 
5.03158

$$$$

     RDKit          3D

 52 55  0  0  0  0  0  0  0  0999 V2000
   15.3607  -11.9301   -0.0947 H   0  0  0  0  0  0  0  0  0  0  0  0
   14.4362  -11.6454   -0.0342 O   0  0  0  0  0  0  0  0  0  0  0  0
   14.3810  -10.5373   -0.8114 C   0  0  0  0  0  0  0  0  0  0  0  0
   15.2914  -10.2072   -1.5528 O   0  0  0  0  0  0  0  0  0  0  0  0
   13.1789   -9.6905   -0.7179 C   0  0  0  0  0  0  0  0  0  0  0  0
   12.9570   -8.4580   -1.2957 C   0  0  0  0  0  0  0  0  0  0  0  0
   13.8529   -7.7429   -2.2840 C   0  0  0  0  0  0  0  0  0  0  0  0
   13.2414   -7.1240   -2.9460 H   0  0  0  0  0  0  0  0  0  0  0  0
   14.3852   -8.4700   -2.9064 H   0  0  0  0  0  0  0  0  0  0  0  0
   14.8526   -6.8423   -1.6142 C   0  0  0  0  0  0  0  0  0  0  0  0
   16.1237   -7.2942   -1.2315 C   0  0  0  0  0  0  0  0  0  0  0  0
   16.3958   -8.3353   -1.3855 H   0  0  0  0  0  0  0  0  0  0  0  0
   17.0419   -6.3990   -0.6660 C   0  0  0  0  0  0  0  0  0  0  0  0
   18.0345   -6.7375   -0.3797 H   0  0  0  0  0  0  0  0  0  0  0  0
   16.6824   -5.0603   -0.4637 C   0  0  0  0  0  0  0  0  0  0  0  0
   17.4064   -4.3711   -0.0436 H   0  0  0  0  0  0  0  0  0  0  0  0
   15.4027   -4.6034   -0.8126 C   0  0  0  0  0  0  0  0  0  0  0  0
   14.9677   -3.1680   -0.5766 C   0  0  0  0  0  0  0  0  0  0  0  0
   15.4639   -2.2071   -1.6454 C   0  0  0  0  0  0  0  0  0  0  0  0
   15.9564   -2.6585   -2.8835 C   0  0  0  0  0  0  0  0  0  0  0  0
   15.9963   -3.7235   -3.0929 H   0  0  0  0  0  0  0  0  0  0  0  0
   16.4019   -1.7474   -3.8497 C   0  0  0  0  0  0  0  0  0  0  0  0
   16.7915   -2.1020   -4.7977 H   0  0  0  0  0  0  0  0  0  0  0  0
   16.3468   -0.3743   -3.5980 C   0  0  0  0  0  0  0  0  0  0  0  0
   16.7060    0.3309   -4.3428 H   0  0  0  0  0  0  0  0  0  0  0  0
   15.8194    0.0871   -2.3892 C   0  0  0  0  0  0  0  0  0  0  0  0
   15.7565    1.1530   -2.1955 H   0  0  0  0  0  0  0  0  0  0  0  0
   15.3744   -0.8229   -1.4254 C   0  0  0  0  0  0  0  0  0  0  0  0
   14.9580   -0.4520   -0.4926 H   0  0  0  0  0  0  0  0  0  0  0  0
   13.4389   -3.0334   -0.4312 C   0  0  0  0  0  0  0  0  0  0  0  0
   12.5832   -3.3164   -1.2643 O   0  0  0  0  0  0  0  0  0  0  0  0
   13.1363   -2.5837    0.8394 N   0  0  0  0  0  0  0  0  0  0  0  0
   11.8016   -2.2833    1.3572 C   0  0  0  0  0  0  0  0  0  0  0  0
   11.5748   -2.8907    2.2418 H   0  0  0  0  0  0  0  0  0  0  0  0
   11.7254   -1.2242    1.6283 H   0  0  0  0  0  0  0  0  0  0  0  0
   11.0362   -2.4911    0.6007 H   0  0  0  0  0  0  0  0  0  0  0  0
   14.3289   -2.4604    1.5159 C   0  0  0  0  0  0  0  0  0  0  0  0
   14.4778   -2.1090    2.8247 N   0  0  0  0  0  0  0  0  0  0  0  0
   13.6543   -2.0880    3.4233 H   0  0  0  0  0  0  0  0  0  0  0  0
   15.3994   -2.2130    3.2440 H   0  0  0  0  0  0  0  0  0  0  0  0
   15.3534   -2.7468    0.7839 N   0  0  0  0  0  4  0  0  0  0  0  0
   16.2979   -2.8514    1.1577 H   0  0  0  0  0  0  0  0  0  0  0  0
   14.5159   -5.5005   -1.4152 C   0  0  0  0  0  0  0  0  0  0  0  0
   13.5435   -5.1505   -1.7411 H   0  0  0  0  0  0  0  0  0  0  0  0
   11.6834   -7.9819   -0.7616 C   0  0  0  0  0  0  0  0  0  0  0  0
   11.0186   -6.6568   -1.0242 C   0  0  0  0  0  0  0  0  0  0  0  0
   10.9908   -6.4449   -2.0969 H   0  0  0  0  0  0  0  0  0  0  0  0
    9.9927   -6.6591   -0.6420 H   0  0  0  0  0  0  0  0  0  0  0  0
   11.5692   -5.8628   -0.5125 H   0  0  0  0  0  0  0  0  0  0  0  0
   11.1576   -8.8931    0.0179 N   0  0  0  0  0  0  0  0  0  0  0  0
   12.0262   -9.9427    0.0278 N   0  0  0  0  0  0  0  0  0  0  0  0
   11.8340  -10.7940    0.5655 H   0  0  0  0  0  0  0  0  0  0  0  0
  1  2  1  0
  2  3  1  0
  3  4  2  0
  3  5  1  0
  5  6  2  0
  6  7  1  0
  7  8  1  0
  7  9  1  0
  7 10  1  0
 10 11  2  0
 11 12  1  0
 11 13  1  0
 13 14  1  0
 13 15  2  0
 15 16  1  0
 15 17  1  0
 17 18  1  0
 18 19  1  0
 19 20  2  0
 20 21  1  0
 20 22  1  0
 22 23  1  0
 22 24  2  0
 24 25  1  0
 24 26  1  0
 26 27  1  0
 26 28  2  0
 28 29  1  0
 18 30  1  0
 30 31  2  0
 30 32  1  0
 32 33  1  0
 33 34  1  0
 33 35  1  0
 33 36  1  0
 32 37  1  0
 37 38  1  0
 38 39  1  0
 38 40  1  0
 37 41  2  0
 41 42  1  0
 17 43  2  0
 43 44  1  0
  6 45  1  0
 45 46  1  0
 46 47  1  0
 46 48  1  0
 46 49  1  0
 45 50  2  0
 50 51  1  0
 51 52  1  0
 51  5  1  0
 43 10  1  0
 41 18  1  0
 28 19  1  0
M  CHG  1  41   1
M  END
>  <score>  (430) 
5.03075

$$$$

     RDKit          3D

 49 52  0  0  0  0  0  0  0  0999 V2000
   10.3534  -12.3190   -3.5123 H   0  0  0  0  0  0  0  0  0  0  0  0
   10.4479  -11.3345   -3.0577 C   0  0  0  0  0  0  0  0  0  0  0  0
    9.3369  -10.7049   -2.6482 N   0  0  0  0  0  0  0  0  0  0  0  0
    9.4657   -9.4697   -2.1407 C   0  0  0  0  0  0  0  0  0  0  0  0
    8.5646   -8.9456   -1.8431 H   0  0  0  0  0  0  0  0  0  0  0  0
   10.7053   -8.8257   -1.9974 C   0  0  0  0  0  0  0  0  0  0  0  0
   10.7160   -7.8132   -1.6049 H   0  0  0  0  0  0  0  0  0  0  0  0
   11.8998   -9.4745   -2.3691 C   0  0  0  0  0  0  0  0  0  0  0  0
   13.2549   -8.8564   -2.1846 C   0  0  0  0  0  0  0  0  0  0  0  0
   14.2242   -9.5549   -1.8969 O   0  0  0  0  0  0  0  0  0  0  0  0
   13.3782   -7.4804   -2.2399 N   0  0  0  0  0  0  0  0  0  0  0  0
   12.5171   -6.9687   -2.4005 H   0  0  0  0  0  0  0  0  0  0  0  0
   14.4558   -6.7373   -1.7750 C   0  0  0  0  0  0  0  0  0  0  0  0
   15.6910   -7.2966   -1.4375 C   0  0  0  0  0  0  0  0  0  0  0  0
   15.8664   -8.3523   -1.5960 H   0  0  0  0  0  0  0  0  0  0  0  0
   16.6933   -6.4990   -0.8694 C   0  0  0  0  0  0  0  0  0  0  0  0
   17.6543   -6.9283   -0.5959 H   0  0  0  0  0  0  0  0  0  0  0  0
   16.4436   -5.1450   -0.6206 C   0  0  0  0  0  0  0  0  0  0  0  0
   17.2037   -4.5384   -0.1383 H   0  0  0  0  0  0  0  0  0  0  0  0
   15.2102   -4.5673   -0.9556 C   0  0  0  0  0  0  0  0  0  0  0  0
   14.9006   -3.1085   -0.6364 C   0  0  0  0  0  0  0  0  0  0  0  0
   15.4578   -2.1294   -1.6645 C   0  0  0  0  0  0  0  0  0  0  0  0
   15.9769   -2.5686   -2.8947 C   0  0  0  0  0  0  0  0  0  0  0  0
   16.0231   -3.6329   -3.1075 H   0  0  0  0  0  0  0  0  0  0  0  0
   16.4286   -1.6497   -3.8491 C   0  0  0  0  0  0  0  0  0  0  0  0
   16.8230   -2.0032   -4.7947 H   0  0  0  0  0  0  0  0  0  0  0  0
   16.3657   -0.2782   -3.5905 C   0  0  0  0  0  0  0  0  0  0  0  0
   16.7093    0.4308   -4.3372 H   0  0  0  0  0  0  0  0  0  0  0  0
   15.8548    0.1748   -2.3718 C   0  0  0  0  0  0  0  0  0  0  0  0
   15.8012    1.2389   -2.1627 H   0  0  0  0  0  0  0  0  0  0  0  0
   15.4025   -0.7447   -1.4183 C   0  0  0  0  0  0  0  0  0  0  0  0
   14.9999   -0.3823   -0.4758 H   0  0  0  0  0  0  0  0  0  0  0  0
   13.3874   -2.8775   -0.4530 C   0  0  0  0  0  0  0  0  0  0  0  0
   12.5067   -3.0407   -1.2967 O   0  0  0  0  0  0  0  0  0  0  0  0
   13.1373   -2.4655    0.8387 N   0  0  0  0  0  0  0  0  0  0  0  0
   11.8330   -2.1689    1.4306 C   0  0  0  0  0  0  0  0  0  0  0  0
   11.0192   -2.3897    0.7280 H   0  0  0  0  0  0  0  0  0  0  0  0
   11.6819   -2.7752    2.3311 H   0  0  0  0  0  0  0  0  0  0  0  0
   11.7646   -1.1104    1.7055 H   0  0  0  0  0  0  0  0  0  0  0  0
   14.3474   -2.4170    1.4885 C   0  0  0  0  0  0  0  0  0  0  0  0
   14.5145   -2.0670    2.7897 N   0  0  0  0  0  0  0  0  0  0  0  0
   13.6937   -2.0196    3.3894 H   0  0  0  0  0  0  0  0  0  0  0  0
   15.4300   -2.2101    3.2077 H   0  0  0  0  0  0  0  0  0  0  0  0
   15.3375   -2.7644    0.7336 N   0  0  0  0  0  4  0  0  0  0  0  0
   16.3005   -2.8421    1.0620 H   0  0  0  0  0  0  0  0  0  0  0  0
   14.2452   -5.3781   -1.5756 C   0  0  0  0  0  0  0  0  0  0  0  0
   13.2799   -4.9679   -1.8423 H   0  0  0  0  0  0  0  0  0  0  0  0
   11.7179  -10.7494   -2.9351 C   0  0  0  0  0  0  0  0  0  0  0  0
   12.5699  -11.2729   -3.3487 H   0  0  0  0  0  0  0  0  0  0  0  0
  1  2  1  0
  2  3  2  0
  3  4  1  0
  4  5  1  0
  4  6  2  0
  6  7  1  0
  6  8  1  0
  8  9  1  0
  9 10  2  0
  9 11  1  0
 11 12  1  0
 11 13  1  0
 13 14  2  0
 14 15  1  0
 14 16  1  0
 16 17  1  0
 16 18  2  0
 18 19  1  0
 18 20  1  0
 20 21  1  0
 21 22  1  0
 22 23  2  0
 23 24  1  0
 23 25  1  0
 25 26  1  0
 25 27  2  0
 27 28  1  0
 27 29  1  0
 29 30  1  0
 29 31  2  0
 31 32  1  0
 21 33  1  0
 33 34  2  0
 33 35  1  0
 35 36  1  0
 36 37  1  0
 36 38  1  0
 36 39  1  0
 35 40  1  0
 40 41  1  0
 41 42  1  0
 41 43  1  0
 40 44  2  0
 44 45  1  0
 20 46  2  0
 46 47  1  0
  8 48  2  0
 48 49  1  0
 48  2  1  0
 46 13  1  0
 44 21  1  0
 31 22  1  0
M  CHG  1  44   1
M  END
>  <score>  (431) 
5.02543

$$$$

     RDKit          3D

 40 42  0  0  0  0  0  0  0  0999 V2000
   13.2385   -9.7531   -3.4484 H   0  0  0  0  0  0  0  0  0  0  0  0
   13.9482   -9.1386   -2.9102 C   0  0  0  0  0  0  0  0  0  0  0  0
   13.2385   -9.7532   -3.4484 H   0  0  0  0  0  0  0  0  0  0  0  0
   13.6980   -7.8502   -2.6905 C   0  0  0  0  0  0  0  0  0  0  0  0
   12.7688   -7.4321   -3.0621 H   0  0  0  0  0  0  0  0  0  0  0  0
   14.6397   -6.9708   -1.9583 C   0  0  0  0  0  0  0  0  0  0  0  0
   15.8609   -7.4572   -1.4609 C   0  0  0  0  0  0  0  0  0  0  0  0
   16.1538   -8.4903   -1.5976 H   0  0  0  0  0  0  0  0  0  0  0  0
   16.7310   -6.5906   -0.7923 C   0  0  0  0  0  0  0  0  0  0  0  0
   17.6817   -6.9547   -0.4242 H   0  0  0  0  0  0  0  0  0  0  0  0
   16.3631   -5.2521   -0.5877 C   0  0  0  0  0  0  0  0  0  0  0  0
   17.0799   -4.6177   -0.0884 H   0  0  0  0  0  0  0  0  0  0  0  0
   15.1412   -4.7337   -1.0683 C   0  0  0  0  0  0  0  0  0  0  0  0
   14.7931   -3.2518   -0.7887 C   0  0  0  0  0  0  0  0  0  0  0  0
   15.3799   -2.2445   -1.7945 C   0  0  0  0  0  0  0  0  0  0  0  0
   15.9520   -2.6538   -3.0208 C   0  0  0  0  0  0  0  0  0  0  0  0
   16.0156   -3.6985   -3.2926 H   0  0  0  0  0  0  0  0  0  0  0  0
   16.4335   -1.6935   -3.9267 C   0  0  0  0  0  0  0  0  0  0  0  0
   16.8641   -2.0106   -4.8677 H   0  0  0  0  0  0  0  0  0  0  0  0
   16.3365   -0.3218   -3.6304 C   0  0  0  0  0  0  0  0  0  0  0  0
   16.6988    0.4047   -4.3460 H   0  0  0  0  0  0  0  0  0  0  0  0
   15.7946    0.1212   -2.4082 C   0  0  0  0  0  0  0  0  0  0  0  0
   15.7314    1.1759   -2.1743 H   0  0  0  0  0  0  0  0  0  0  0  0
   15.3323   -0.8563   -1.5011 C   0  0  0  0  0  0  0  0  0  0  0  0
   14.9014   -0.5167   -0.5679 H   0  0  0  0  0  0  0  0  0  0  0  0
   13.2816   -3.0098   -0.6331 C   0  0  0  0  0  0  0  0  0  0  0  0
   12.3974   -3.0676   -1.5080 O   0  0  0  0  0  0  0  0  0  0  0  0
   13.0217   -2.6523    0.7195 N   0  0  0  0  0  0  0  0  0  0  0  0
   11.7106   -2.3097    1.2660 C   0  0  0  0  0  0  0  0  0  0  0  0
   11.7140   -1.2549    1.6122 H   0  0  0  0  0  0  0  0  0  0  0  0
   11.4734   -2.9794    2.1191 H   0  0  0  0  0  0  0  0  0  0  0  0
   10.9186   -2.4285    0.4974 H   0  0  0  0  0  0  0  0  0  0  0  0
   14.2096   -2.6312    1.3680 C   0  0  0  0  0  0  0  0  0  0  0  0
   14.3786   -2.3547    2.6817 N   0  0  0  0  0  0  0  0  0  0  0  0
   13.5740   -2.1272    3.3063 H   0  0  0  0  0  0  0  0  0  0  0  0
   13.5740   -2.1272    3.3063 H   0  0  0  0  0  0  0  0  0  0  0  0
   15.2209   -2.9183    0.5768 N   0  0  0  0  0  4  0  0  0  0  0  0
   16.2131   -2.8681    0.8993 H   0  0  0  0  0  0  0  0  0  0  0  0
   14.2908   -5.6166   -1.7759 C   0  0  0  0  0  0  0  0  0  0  0  0
   13.3582   -5.2563   -2.1855 H   0  0  0  0  0  0  0  0  0  0  0  0
  1  2  1  0
  2  3  1  0
  2  4  2  0
  4  5  1  0
  4  6  1  0
  6  7  2  0
  7  8  1  0
  7  9  1  0
  9 10  1  0
  9 11  2  0
 11 12  1  0
 11 13  1  0
 13 14  1  0
 14 15  1  0
 15 16  2  0
 16 17  1  0
 16 18  1  0
 18 19  1  0
 18 20  2  0
 20 21  1  0
 20 22  1  0
 22 23  1  0
 22 24  2  0
 24 25  1  0
 14 26  1  0
 26 27  2  0
 26 28  1  0
 28 29  1  0
 29 30  1  0
 29 31  1  0
 29 32  1  0
 28 33  1  0
 33 34  1  0
 34 35  1  0
 34 36  1  0
 33 37  2  0
 37 38  1  0
 13 39  2  0
 39 40  1  0
 39  6  1  0
 37 14  1  0
 24 15  1  0
M  CHG  1  37   1
M  END
>  <score>  (432) 
5.02303

$$$$

     RDKit          3D

 48 51  0  0  0  0  0  0  0  0999 V2000
   13.5565  -10.4080   -3.8962 H   0  0  0  0  0  0  0  0  0  0  0  0
   13.1245   -9.6685   -3.2278 C   0  0  0  0  0  0  0  0  0  0  0  0
   11.8090   -9.6785   -2.9747 N   0  0  0  0  0  0  0  0  0  0  0  0
   11.3032   -8.7267   -2.1787 C   0  0  0  0  0  0  0  0  0  0  0  0
    9.8207   -8.7342   -1.9430 C   0  0  0  0  0  0  0  0  0  0  0  0
    9.3571   -9.5088   -2.5599 H   0  0  0  0  0  0  0  0  0  0  0  0
    9.3706   -7.7778   -2.2270 H   0  0  0  0  0  0  0  0  0  0  0  0
    9.6035   -8.9519   -0.8939 H   0  0  0  0  0  0  0  0  0  0  0  0
   12.1104   -7.7286   -1.6017 C   0  0  0  0  0  0  0  0  0  0  0  0
   11.6469   -6.9667   -0.9951 H   0  0  0  0  0  0  0  0  0  0  0  0
   13.4932   -7.7219   -1.8402 C   0  0  0  0  0  0  0  0  0  0  0  0
   14.4746   -6.7415   -1.3240 C   0  0  0  0  0  0  0  0  0  0  0  0
   15.7833   -7.1816   -1.0560 C   0  0  0  0  0  0  0  0  0  0  0  0
   16.0332   -8.2322   -1.1650 H   0  0  0  0  0  0  0  0  0  0  0  0
   16.7761   -6.2877   -0.6528 C   0  0  0  0  0  0  0  0  0  0  0  0
   17.7751   -6.6487   -0.4222 H   0  0  0  0  0  0  0  0  0  0  0  0
   16.4862   -4.9279   -0.5357 C   0  0  0  0  0  0  0  0  0  0  0  0
   17.2573   -4.2260   -0.2300 H   0  0  0  0  0  0  0  0  0  0  0  0
   15.1879   -4.4492   -0.7604 C   0  0  0  0  0  0  0  0  0  0  0  0
   14.8919   -2.9616   -0.5363 C   0  0  0  0  0  0  0  0  0  0  0  0
   15.4661   -2.0340   -1.6094 C   0  0  0  0  0  0  0  0  0  0  0  0
   15.9600   -2.5396   -2.8240 C   0  0  0  0  0  0  0  0  0  0  0  0
   15.9757   -3.6126   -2.9866 H   0  0  0  0  0  0  0  0  0  0  0  0
   16.4175   -1.6816   -3.8333 C   0  0  0  0  0  0  0  0  0  0  0  0
   16.7927   -2.0827   -4.7687 H   0  0  0  0  0  0  0  0  0  0  0  0
   16.3834   -0.2986   -3.6498 C   0  0  0  0  0  0  0  0  0  0  0  0
   16.7393    0.3664   -4.4319 H   0  0  0  0  0  0  0  0  0  0  0  0
   15.8831    0.2235   -2.4553 C   0  0  0  0  0  0  0  0  0  0  0  0
   15.8427    1.2990   -2.3167 H   0  0  0  0  0  0  0  0  0  0  0  0
   15.4269   -0.6351   -1.4460 C   0  0  0  0  0  0  0  0  0  0  0  0
   15.0262   -0.2078   -0.5313 H   0  0  0  0  0  0  0  0  0  0  0  0
   13.3874   -2.6997   -0.3843 C   0  0  0  0  0  0  0  0  0  0  0  0
   12.5251   -2.8765   -1.2416 O   0  0  0  0  0  0  0  0  0  0  0  0
   13.1016   -2.3345    0.9139 N   0  0  0  0  0  0  0  0  0  0  0  0
   11.7562   -2.1932    1.4688 C   0  0  0  0  0  0  0  0  0  0  0  0
   11.6168   -2.8552    2.3308 H   0  0  0  0  0  0  0  0  0  0  0  0
   11.0056   -2.4540    0.7126 H   0  0  0  0  0  0  0  0  0  0  0  0
   11.5679   -1.1609    1.7792 H   0  0  0  0  0  0  0  0  0  0  0  0
   14.2963   -2.3738    1.6030 C   0  0  0  0  0  0  0  0  0  0  0  0
   14.4468   -2.2626    2.9528 N   0  0  0  0  0  0  0  0  0  0  0  0
   15.3861   -2.0866    3.3117 H   0  0  0  0  0  0  0  0  0  0  0  0
   13.6396   -1.9813    3.5034 H   0  0  0  0  0  0  0  0  0  0  0  0
   15.3101   -2.5913    0.8330 N   0  0  0  0  0  4  0  0  0  0  0  0
   16.2506   -2.7684    1.1953 H   0  0  0  0  0  0  0  0  0  0  0  0
   14.1877   -5.3775   -1.1438 C   0  0  0  0  0  0  0  0  0  0  0  0
   13.1740   -5.0426   -1.3260 H   0  0  0  0  0  0  0  0  0  0  0  0
   13.9733   -8.7228   -2.6706 C   0  0  0  0  0  0  0  0  0  0  0  0
   15.0295   -8.7390   -2.8966 H   0  0  0  0  0  0  0  0  0  0  0  0
  1  2  1  0
  2  3  2  0
  3  4  1  0
  4  5  1  0
  5  6  1  0
  5  7  1  0
  5  8  1  0
  4  9  2  0
  9 10  1  0
  9 11  1  0
 11 12  1  0
 12 13  2  0
 13 14  1  0
 13 15  1  0
 15 16  1  0
 15 17  2  0
 17 18  1  0
 17 19  1  0
 19 20  1  0
 20 21  1  0
 21 22  2  0
 22 23  1  0
 22 24  1  0
 24 25  1  0
 24 26  2  0
 26 27  1  0
 26 28  1  0
 28 29  1  0
 28 30  2  0
 30 31  1  0
 20 32  1  0
 32 33  2  0
 32 34  1  0
 34 35  1  0
 35 36  1  0
 35 37  1  0
 35 38  1  0
 34 39  1  0
 39 40  1  0
 40 41  1  0
 40 42  1  0
 39 43  2  0
 43 44  1  0
 19 45  2  0
 45 46  1  0
 11 47  2  0
 47 48  1  0
 47  2  1  0
 45 12  1  0
 43 20  1  0
 30 21  1  0
M  CHG  1  43   1
M  END
>  <score>  (433) 
5.0229

$$$$

     RDKit          3D

 47 50  0  0  0  0  0  0  0  0999 V2000
   12.6150  -11.1002   -4.5214 H   0  0  0  0  0  0  0  0  0  0  0  0
   13.2416  -10.9515   -3.7853 O   0  0  0  0  0  0  0  0  0  0  0  0
   12.8463   -9.8503   -3.0798 C   0  0  0  0  0  0  0  0  0  0  0  0
   11.4976   -9.6232   -2.8169 C   0  0  0  0  0  0  0  0  0  0  0  0
   10.7760  -10.3439   -3.1770 H   0  0  0  0  0  0  0  0  0  0  0  0
   11.1071   -8.4712   -2.1172 C   0  0  0  0  0  0  0  0  0  0  0  0
   10.0682   -8.3136   -1.8470 H   0  0  0  0  0  0  0  0  0  0  0  0
   12.0672   -7.5175   -1.7493 C   0  0  0  0  0  0  0  0  0  0  0  0
   11.7842   -6.6353   -1.1828 H   0  0  0  0  0  0  0  0  0  0  0  0
   13.4242   -7.7306   -2.0291 C   0  0  0  0  0  0  0  0  0  0  0  0
   14.4790   -6.7752   -1.6348 C   0  0  0  0  0  0  0  0  0  0  0  0
   15.7657   -7.2540   -1.3427 C   0  0  0  0  0  0  0  0  0  0  0  0
   15.9852   -8.3082   -1.4775 H   0  0  0  0  0  0  0  0  0  0  0  0
   16.7439   -6.4072   -0.8195 C   0  0  0  0  0  0  0  0  0  0  0  0
   17.7119   -6.8122   -0.5339 H   0  0  0  0  0  0  0  0  0  0  0  0
   16.4577   -5.0544   -0.6183 C   0  0  0  0  0  0  0  0  0  0  0  0
   17.2237   -4.4082   -0.2010 H   0  0  0  0  0  0  0  0  0  0  0  0
   15.1970   -4.5294   -0.9408 C   0  0  0  0  0  0  0  0  0  0  0  0
   14.8814   -3.0652   -0.6490 C   0  0  0  0  0  0  0  0  0  0  0  0
   15.4472   -2.1083   -1.6898 C   0  0  0  0  0  0  0  0  0  0  0  0
   15.9644   -2.5693   -2.9134 C   0  0  0  0  0  0  0  0  0  0  0  0
   15.9977   -3.6362   -3.1126 H   0  0  0  0  0  0  0  0  0  0  0  0
   16.4268   -1.6716   -3.8841 C   0  0  0  0  0  0  0  0  0  0  0  0
   16.8233   -2.0425   -4.8242 H   0  0  0  0  0  0  0  0  0  0  0  0
   16.3711   -0.2950   -3.6448 C   0  0  0  0  0  0  0  0  0  0  0  0
   16.7336    0.3998   -4.3983 H   0  0  0  0  0  0  0  0  0  0  0  0
   15.8486    0.1793   -2.4375 C   0  0  0  0  0  0  0  0  0  0  0  0
   15.7952    1.2486   -2.2513 H   0  0  0  0  0  0  0  0  0  0  0  0
   15.3881   -0.7217   -1.4697 C   0  0  0  0  0  0  0  0  0  0  0  0
   14.9727   -0.3406   -0.5411 H   0  0  0  0  0  0  0  0  0  0  0  0
   13.3708   -2.8291   -0.4810 C   0  0  0  0  0  0  0  0  0  0  0  0
   12.5032   -2.9651   -1.3400 O   0  0  0  0  0  0  0  0  0  0  0  0
   13.0936   -2.4790    0.8245 N   0  0  0  0  0  0  0  0  0  0  0  0
   11.7611   -2.2435    1.3811 C   0  0  0  0  0  0  0  0  0  0  0  0
   10.9865   -2.4638    0.6370 H   0  0  0  0  0  0  0  0  0  0  0  0
   11.6437   -1.1988    1.6861 H   0  0  0  0  0  0  0  0  0  0  0  0
   11.5796   -2.8830    2.2512 H   0  0  0  0  0  0  0  0  0  0  0  0
   14.2940   -2.4785    1.5046 C   0  0  0  0  0  0  0  0  0  0  0  0
   14.4464   -2.2894    2.8468 N   0  0  0  0  0  0  0  0  0  0  0  0
   13.6390   -2.0499    3.4189 H   0  0  0  0  0  0  0  0  0  0  0  0
   15.3874   -2.2059    3.2306 H   0  0  0  0  0  0  0  0  0  0  0  0
   15.3022   -2.7263    0.7308 N   0  0  0  0  0  4  0  0  0  0  0  0
   16.2550   -2.8548    1.0756 H   0  0  0  0  0  0  0  0  0  0  0  0
   14.2263   -5.4005   -1.4795 C   0  0  0  0  0  0  0  0  0  0  0  0
   13.2481   -5.0163   -1.7470 H   0  0  0  0  0  0  0  0  0  0  0  0
   13.7890   -8.9276   -2.6472 C   0  0  0  0  0  0  0  0  0  0  0  0
   14.8381   -9.1002   -2.8039 H   0  0  0  0  0  0  0  0  0  0  0  0
  1  2  1  0
  2  3  1  0
  3  4  2  0
  4  5  1  0
  4  6  1  0
  6  7  1  0
  6  8  2  0
  8  9  1  0
  8 10  1  0
 10 11  1  0
 11 12  2  0
 12 13  1  0
 12 14  1  0
 14 15  1  0
 14 16  2  0
 16 17  1  0
 16 18  1  0
 18 19  1  0
 19 20  1  0
 20 21  2  0
 21 22  1  0
 21 23  1  0
 23 24  1  0
 23 25  2  0
 25 26  1  0
 25 27  1  0
 27 28  1  0
 27 29  2  0
 29 30  1  0
 19 31  1  0
 31 32  2  0
 31 33  1  0
 33 34  1  0
 34 35  1  0
 34 36  1  0
 34 37  1  0
 33 38  1  0
 38 39  1  0
 39 40  1  0
 39 41  1  0
 38 42  2  0
 42 43  1  0
 18 44  2  0
 44 45  1  0
 10 46  2  0
 46 47  1  0
 46  3  1  0
 44 11  1  0
 42 19  1  0
 29 20  1  0
M  CHG  1  42   1
M  END
>  <score>  (434) 
5.02079

$$$$

     RDKit          3D

 48 51  0  0  0  0  0  0  0  0999 V2000
   13.1733  -10.8455   -3.4154 H   0  0  0  0  0  0  0  0  0  0  0  0
   12.8805   -9.9117   -2.9352 C   0  0  0  0  0  0  0  0  0  0  0  0
   13.8153   -8.9820   -2.6871 N   0  0  0  0  0  0  0  0  0  0  0  0
   13.4743   -7.8261   -2.0665 C   0  0  0  0  0  0  0  0  0  0  0  0
   14.5429   -6.8673   -1.7061 C   0  0  0  0  0  0  0  0  0  0  0  0
   15.8275   -7.3496   -1.4158 C   0  0  0  0  0  0  0  0  0  0  0  0
   16.0391   -8.4062   -1.5385 H   0  0  0  0  0  0  0  0  0  0  0  0
   16.8109   -6.5010   -0.9076 C   0  0  0  0  0  0  0  0  0  0  0  0
   17.7807   -6.9043   -0.6321 H   0  0  0  0  0  0  0  0  0  0  0  0
   16.5284   -5.1503   -0.6985 C   0  0  0  0  0  0  0  0  0  0  0  0
   17.2948   -4.5073   -0.2747 H   0  0  0  0  0  0  0  0  0  0  0  0
   15.2610   -4.6293   -1.0052 C   0  0  0  0  0  0  0  0  0  0  0  0
   14.9021   -3.1824   -0.7052 C   0  0  0  0  0  0  0  0  0  0  0  0
   15.4363   -2.2064   -1.7441 C   0  0  0  0  0  0  0  0  0  0  0  0
   15.9624   -2.6318   -2.9794 C   0  0  0  0  0  0  0  0  0  0  0  0
   16.0113   -3.6922   -3.2132 H   0  0  0  0  0  0  0  0  0  0  0  0
   16.4255   -1.6983   -3.9169 C   0  0  0  0  0  0  0  0  0  0  0  0
   16.8357   -2.0306   -4.8646 H   0  0  0  0  0  0  0  0  0  0  0  0
   16.3608   -0.3303   -3.6372 C   0  0  0  0  0  0  0  0  0  0  0  0
   16.7267    0.3921   -4.3612 H   0  0  0  0  0  0  0  0  0  0  0  0
   15.8243    0.1033   -2.4226 C   0  0  0  0  0  0  0  0  0  0  0  0
   15.7641    1.1633   -2.1983 H   0  0  0  0  0  0  0  0  0  0  0  0
   15.3619   -0.8282   -1.4894 C   0  0  0  0  0  0  0  0  0  0  0  0
   14.9399   -0.4829   -0.5500 H   0  0  0  0  0  0  0  0  0  0  0  0
   13.3833   -2.9734   -0.4990 C   0  0  0  0  0  0  0  0  0  0  0  0
   12.4901   -3.1321   -1.3274 O   0  0  0  0  0  0  0  0  0  0  0  0
   13.1435   -2.5885    0.8052 N   0  0  0  0  0  0  0  0  0  0  0  0
   11.8525   -2.2528    1.4061 C   0  0  0  0  0  0  0  0  0  0  0  0
   11.6554   -1.1793    1.3200 H   0  0  0  0  0  0  0  0  0  0  0  0
   11.0354   -2.7957    0.9193 H   0  0  0  0  0  0  0  0  0  0  0  0
   11.8404   -2.5187    2.4684 H   0  0  0  0  0  0  0  0  0  0  0  0
   14.3630   -2.5259    1.4343 C   0  0  0  0  0  0  0  0  0  0  0  0
   14.5325   -2.1866    2.7393 N   0  0  0  0  0  0  0  0  0  0  0  0
   13.7073   -2.1307    3.3332 H   0  0  0  0  0  0  0  0  0  0  0  0
   15.4513   -2.3158    3.1550 H   0  0  0  0  0  0  0  0  0  0  0  0
   15.3514   -2.8351    0.6586 N   0  0  0  0  0  4  0  0  0  0  0  0
   16.3168   -2.9334    0.9752 H   0  0  0  0  0  0  0  0  0  0  0  0
   14.2935   -5.4908   -1.5424 C   0  0  0  0  0  0  0  0  0  0  0  0
   13.3232   -5.0709   -1.7877 H   0  0  0  0  0  0  0  0  0  0  0  0
   12.1447   -7.6013   -1.6287 C   0  0  0  0  0  0  0  0  0  0  0  0
   11.7659   -6.4061   -0.7861 C   0  0  0  0  0  0  0  0  0  0  0  0
   12.6126   -6.1134   -0.1572 H   0  0  0  0  0  0  0  0  0  0  0  0
   10.9260   -6.6507   -0.1248 H   0  0  0  0  0  0  0  0  0  0  0  0
   11.4774   -5.5553   -1.4131 H   0  0  0  0  0  0  0  0  0  0  0  0
   11.1717   -8.5701   -1.8807 C   0  0  0  0  0  0  0  0  0  0  0  0
   10.1537   -8.4334   -1.5227 H   0  0  0  0  0  0  0  0  0  0  0  0
   11.5471   -9.7272   -2.5584 C   0  0  0  0  0  0  0  0  0  0  0  0
   10.8291  -10.5144   -2.7512 H   0  0  0  0  0  0  0  0  0  0  0  0
  1  2  1  0
  2  3  2  0
  3  4  1  0
  4  5  1  0
  5  6  2  0
  6  7  1  0
  6  8  1  0
  8  9  1  0
  8 10  2  0
 10 11  1  0
 10 12  1  0
 12 13  1  0
 13 14  1  0
 14 15  2  0
 15 16  1  0
 15 17  1  0
 17 18  1  0
 17 19  2  0
 19 20  1  0
 19 21  1  0
 21 22  1  0
 21 23  2  0
 23 24  1  0
 13 25  1  0
 25 26  2  0
 25 27  1  0
 27 28  1  0
 28 29  1  0
 28 30  1  0
 28 31  1  0
 27 32  1  0
 32 33  1  0
 33 34  1  0
 33 35  1  0
 32 36  2  0
 36 37  1  0
 12 38  2  0
 38 39  1  0
  4 40  2  0
 40 41  1  0
 41 42  1  0
 41 43  1  0
 41 44  1  0
 40 45  1  0
 45 46  1  0
 45 47  2  0
 47 48  1  0
 47  2  1  0
 38  5  1  0
 36 13  1  0
 23 14  1  0
M  CHG  1  36   1
M  END
>  <score>  (435) 
5.01988

$$$$

     RDKit          3D

 41 43  0  0  0  0  0  0  0  0999 V2000
   16.1226   -8.4871   -1.6111 H   0  0  0  0  0  0  0  0  0  0  0  0
   15.8540   -7.4421   -1.4717 C   0  0  0  0  0  0  0  0  0  0  0  0
   16.7285   -6.5837   -0.8014 C   0  0  0  0  0  0  0  0  0  0  0  0
   17.6734   -6.9557   -0.4174 H   0  0  0  0  0  0  0  0  0  0  0  0
   16.3897   -5.2393   -0.6103 C   0  0  0  0  0  0  0  0  0  0  0  0
   17.0683   -4.5904   -0.0655 H   0  0  0  0  0  0  0  0  0  0  0  0
   15.1717   -4.7148   -1.0754 C   0  0  0  0  0  0  0  0  0  0  0  0
   14.8121   -3.2478   -0.7863 C   0  0  0  0  0  0  0  0  0  0  0  0
   15.3887   -2.2363   -1.7808 C   0  0  0  0  0  0  0  0  0  0  0  0
   15.9425   -2.6425   -3.0066 C   0  0  0  0  0  0  0  0  0  0  0  0
   16.0025   -3.6965   -3.2585 H   0  0  0  0  0  0  0  0  0  0  0  0
   16.4217   -1.6971   -3.9200 C   0  0  0  0  0  0  0  0  0  0  0  0
   16.8563   -2.0092   -4.8631 H   0  0  0  0  0  0  0  0  0  0  0  0
   16.3494   -0.3355   -3.6338 C   0  0  0  0  0  0  0  0  0  0  0  0
   16.7177    0.3837   -4.3649 H   0  0  0  0  0  0  0  0  0  0  0  0
   15.8017    0.1090   -2.4203 C   0  0  0  0  0  0  0  0  0  0  0  0
   15.7448    1.5675   -2.1422 C   0  0  0  0  0  0  0  0  0  0  0  0
   16.1614    2.3421   -3.0060 O   0  0  0  0  0  0  0  0  0  0  0  0
   15.1523    2.1194   -0.8234 C   0  0  0  0  0  0  0  0  0  0  0  0
   15.1787    3.4812   -0.7352 F   0  0  0  0  0  0  0  0  0  0  0  0
   13.8448    1.7506   -0.7419 F   0  0  0  0  0  0  0  0  0  0  0  0
   15.8601    1.6359    0.2358 F   0  0  0  0  0  0  0  0  0  0  0  0
   15.3241   -0.8529   -1.5049 C   0  0  0  0  0  0  0  0  0  0  0  0
   14.8935   -0.5417   -0.5552 H   0  0  0  0  0  0  0  0  0  0  0  0
   13.2963   -3.0317   -0.6038 C   0  0  0  0  0  0  0  0  0  0  0  0
   12.4284   -3.0858   -1.4717 O   0  0  0  0  0  0  0  0  0  0  0  0
   13.0230   -2.6752    0.7023 N   0  0  0  0  0  0  0  0  0  0  0  0
   11.7182   -2.3129    1.2633 C   0  0  0  0  0  0  0  0  0  0  0  0
   11.5024   -2.9169    2.1482 H   0  0  0  0  0  0  0  0  0  0  0  0
   10.9130   -2.4756    0.5414 H   0  0  0  0  0  0  0  0  0  0  0  0
   11.6937   -1.2599    1.5585 H   0  0  0  0  0  0  0  0  0  0  0  0
   14.2251   -2.6282    1.3643 C   0  0  0  0  0  0  0  0  0  0  0  0
   14.3954   -2.3342    2.6862 N   0  0  0  0  0  0  0  0  0  0  0  0
   13.5819   -2.1263    3.2623 H   0  0  0  0  0  0  0  0  0  0  0  0
   15.3304   -2.3540    3.0915 H   0  0  0  0  0  0  0  0  0  0  0  0
   15.2211   -2.8995    0.5903 N   0  0  0  0  0  4  0  0  0  0  0  0
   16.1898   -2.9087    0.9045 H   0  0  0  0  0  0  0  0  0  0  0  0
   14.3030   -5.5900   -1.7683 C   0  0  0  0  0  0  0  0  0  0  0  0
   13.3529   -5.2373   -2.1603 H   0  0  0  0  0  0  0  0  0  0  0  0
   14.6431   -6.9416   -1.9612 C   0  0  0  0  0  0  0  0  0  0  0  0
   13.9723   -7.6151   -2.4881 H   0  0  0  0  0  0  0  0  0  0  0  0
  1  2  1  0
  2  3  2  0
  3  4  1  0
  3  5  1  0
  5  6  1  0
  5  7  2  0
  7  8  1  0
  8  9  1  0
  9 10  2  0
 10 11  1  0
 10 12  1  0
 12 13  1  0
 12 14  2  0
 14 15  1  0
 14 16  1  0
 16 17  1  0
 17 18  2  0
 17 19  1  0
 19 20  1  0
 19 21  1  0
 19 22  1  0
 16 23  2  0
 23 24  1  0
  8 25  1  0
 25 26  2  0
 25 27  1  0
 27 28  1  0
 28 29  1  0
 28 30  1  0
 28 31  1  0
 27 32  1  0
 32 33  1  0
 33 34  1  0
 33 35  1  0
 32 36  2  0
 36 37  1  0
  7 38  1  0
 38 39  1  0
 38 40  2  0
 40 41  1  0
 40  2  1  0
 36  8  1  0
 23  9  1  0
M  CHG  1  36   1
M  END
>  <score>  (436) 
5.0184

$$$$

     RDKit          3D

 41 43  0  0  0  0  0  0  0  0999 V2000
   13.0379   -9.4163   -2.5688 H   0  0  0  0  0  0  0  0  0  0  0  0
   13.9169   -9.5283   -2.1182 O   0  0  0  0  0  0  0  0  0  0  0  0
   14.0884   -8.0835   -2.5526 P   0  0  0  0  0  0  0  0  0  0  0  0
   14.4140   -7.7756   -3.9395 O   0  0  0  0  0  0  0  0  0  0  0  0
   12.6681   -8.5790   -2.2672 O   0  0  0  0  0  0  0  0  0  0  0  0
   13.0772   -9.3083   -1.7335 H   0  0  0  0  0  0  0  0  0  0  0  0
   15.0451   -6.8862   -1.5907 C   0  0  0  0  0  0  0  0  0  0  0  0
   16.3025   -7.2711   -1.1039 C   0  0  0  0  0  0  0  0  0  0  0  0
   16.6807   -8.2900   -1.1871 H   0  0  0  0  0  0  0  0  0  0  0  0
   17.1461   -6.3256   -0.5338 C   0  0  0  0  0  0  0  0  0  0  0  0
   18.1297   -6.6272   -0.1900 H   0  0  0  0  0  0  0  0  0  0  0  0
   16.7356   -4.9992   -0.3931 C   0  0  0  0  0  0  0  0  0  0  0  0
   17.4195   -4.2750    0.0379 H   0  0  0  0  0  0  0  0  0  0  0  0
   15.4564   -4.5985   -0.8059 C   0  0  0  0  0  0  0  0  0  0  0  0
   15.0061   -3.1514   -0.5834 C   0  0  0  0  0  0  0  0  0  0  0  0
   15.4978   -2.1751   -1.6586 C   0  0  0  0  0  0  0  0  0  0  0  0
   15.9987   -2.6313   -2.8915 C   0  0  0  0  0  0  0  0  0  0  0  0
   16.0645   -3.6962   -3.0836 H   0  0  0  0  0  0  0  0  0  0  0  0
   16.4167   -1.7336   -3.8840 C   0  0  0  0  0  0  0  0  0  0  0  0
   16.7989   -2.1003   -4.8301 H   0  0  0  0  0  0  0  0  0  0  0  0
   16.3368   -0.3571   -3.6676 C   0  0  0  0  0  0  0  0  0  0  0  0
   16.6606    0.3371   -4.4402 H   0  0  0  0  0  0  0  0  0  0  0  0
   15.8347    0.1198   -2.4544 C   0  0  0  0  0  0  0  0  0  0  0  0
   15.7664    1.1911   -2.2854 H   0  0  0  0  0  0  0  0  0  0  0  0
   15.4162   -0.7804   -1.4619 C   0  0  0  0  0  0  0  0  0  0  0  0
   15.0275   -0.3822   -0.5291 H   0  0  0  0  0  0  0  0  0  0  0  0
   13.4783   -3.0277   -0.3991 C   0  0  0  0  0  0  0  0  0  0  0  0
   12.6103   -3.2980   -1.2233 O   0  0  0  0  0  0  0  0  0  0  0  0
   13.1880   -2.6126    0.8835 N   0  0  0  0  0  0  0  0  0  0  0  0
   11.8707   -2.2800    1.4310 C   0  0  0  0  0  0  0  0  0  0  0  0
   11.6723   -1.2061    1.3251 H   0  0  0  0  0  0  0  0  0  0  0  0
   11.0803   -2.8326    0.9119 H   0  0  0  0  0  0  0  0  0  0  0  0
   11.8193   -2.5468    2.4939 H   0  0  0  0  0  0  0  0  0  0  0  0
   14.3888   -2.4530    1.5302 C   0  0  0  0  0  0  0  0  0  0  0  0
   14.5094   -2.0417    2.8290 N   0  0  0  0  0  0  0  0  0  0  0  0
   15.3937   -2.2202    3.3104 H   0  0  0  0  0  0  0  0  0  0  0  0
   13.6556   -1.9902    3.3806 H   0  0  0  0  0  0  0  0  0  0  0  0
   15.4003   -2.7231    0.7759 N   0  0  0  0  0  4  0  0  0  0  0  0
   16.3664   -2.7046    1.1035 H   0  0  0  0  0  0  0  0  0  0  0  0
   14.6242   -5.5447   -1.4317 C   0  0  0  0  0  0  0  0  0  0  0  0
   13.6668   -5.1866   -1.8071 H   0  0  0  0  0  0  0  0  0  0  0  0
  1  2  1  0
  2  3  1  0
  3  4  2  0
  3  5  1  0
  5  6  1  0
  3  7  1  0
  7  8  2  0
  8  9  1  0
  8 10  1  0
 10 11  1  0
 10 12  2  0
 12 13  1  0
 12 14  1  0
 14 15  1  0
 15 16  1  0
 16 17  2  0
 17 18  1  0
 17 19  1  0
 19 20  1  0
 19 21  2  0
 21 22  1  0
 21 23  1  0
 23 24  1  0
 23 25  2  0
 25 26  1  0
 15 27  1  0
 27 28  2  0
 27 29  1  0
 29 30  1  0
 30 31  1  0
 30 32  1  0
 30 33  1  0
 29 34  1  0
 34 35  1  0
 35 36  1  0
 35 37  1  0
 34 38  2  0
 38 39  1  0
 14 40  2  0
 40 41  1  0
 40  7  1  0
 38 15  1  0
 25 16  1  0
M  CHG  1  38   1
M  END
>  <score>  (437) 
5.01762

$$$$

     RDKit          3D

 45 47  0  0  0  0  0  0  0  0999 V2000
   11.6971   -5.0769    1.2776 H   0  0  0  0  0  0  0  0  0  0  0  0
   11.4473   -5.9972    1.0723 O   0  0  0  0  0  0  0  0  0  0  0  0
   12.2120   -6.5846   -0.0011 N   0  0  0  0  0  0  0  0  0  0  0  0
   13.1819   -6.8183    0.1919 H   0  0  0  0  0  0  0  0  0  0  0  0
   11.6638   -7.2728   -1.0809 C   0  0  0  0  0  0  0  0  0  0  0  0
   10.4598   -7.2714   -1.2867 O   0  0  0  0  0  0  0  0  0  0  0  0
   12.4843   -8.1733   -1.8929 C   0  0  0  0  0  0  0  0  0  0  0  0
   11.9314   -8.9644   -2.3861 H   0  0  0  0  0  0  0  0  0  0  0  0
   13.8618   -8.1386   -2.0626 C   0  0  0  0  0  0  0  0  0  0  0  0
   14.3204   -8.9540   -2.6132 H   0  0  0  0  0  0  0  0  0  0  0  0
   14.7786   -7.0951   -1.5702 C   0  0  0  0  0  0  0  0  0  0  0  0
   16.1270   -7.4163   -1.3293 C   0  0  0  0  0  0  0  0  0  0  0  0
   16.4865   -8.4253   -1.5184 H   0  0  0  0  0  0  0  0  0  0  0  0
   17.0160   -6.4544   -0.8298 C   0  0  0  0  0  0  0  0  0  0  0  0
   18.0473   -6.7183   -0.6045 H   0  0  0  0  0  0  0  0  0  0  0  0
   16.5733   -5.1483   -0.6094 C   0  0  0  0  0  0  0  0  0  0  0  0
   17.2600   -4.4111   -0.2006 H   0  0  0  0  0  0  0  0  0  0  0  0
   15.2479   -4.7837   -0.8875 C   0  0  0  0  0  0  0  0  0  0  0  0
   14.8254   -3.3401   -0.6445 C   0  0  0  0  0  0  0  0  0  0  0  0
   15.3538   -2.3462   -1.6782 C   0  0  0  0  0  0  0  0  0  0  0  0
   15.8896   -2.7621   -2.9091 C   0  0  0  0  0  0  0  0  0  0  0  0
   15.9312   -3.8216   -3.1429 H   0  0  0  0  0  0  0  0  0  0  0  0
   16.3815   -1.8227   -3.8265 C   0  0  0  0  0  0  0  0  0  0  0  0
   16.8047   -2.1534   -4.7686 H   0  0  0  0  0  0  0  0  0  0  0  0
   16.3375   -0.4561   -3.5336 C   0  0  0  0  0  0  0  0  0  0  0  0
   16.7293    0.2636   -4.2479 H   0  0  0  0  0  0  0  0  0  0  0  0
   15.7895   -0.0227   -2.3235 C   0  0  0  0  0  0  0  0  0  0  0  0
   15.7557    1.0401   -2.0941 H   0  0  0  0  0  0  0  0  0  0  0  0
   15.2947   -0.9628   -1.4106 C   0  0  0  0  0  0  0  0  0  0  0  0
   14.8736   -0.6055   -0.4746 H   0  0  0  0  0  0  0  0  0  0  0  0
   13.3123   -3.1538   -0.4361 C   0  0  0  0  0  0  0  0  0  0  0  0
   12.4085   -3.4068   -1.2275 O   0  0  0  0  0  0  0  0  0  0  0  0
   13.0739   -2.6565    0.8318 N   0  0  0  0  0  0  0  0  0  0  0  0
   11.7786   -2.2632    1.3911 C   0  0  0  0  0  0  0  0  0  0  0  0
   11.5601   -2.8295    2.3044 H   0  0  0  0  0  0  0  0  0  0  0  0
   11.7689   -1.1948    1.6408 H   0  0  0  0  0  0  0  0  0  0  0  0
   10.9713   -2.4523    0.6718 H   0  0  0  0  0  0  0  0  0  0  0  0
   14.2954   -2.5447    1.4558 C   0  0  0  0  0  0  0  0  0  0  0  0
   14.5194   -2.0899    2.7238 N   0  0  0  0  0  0  0  0  0  0  0  0
   13.7329   -2.0443    3.3685 H   0  0  0  0  0  0  0  0  0  0  0  0
   15.4544   -2.2032    3.1077 H   0  0  0  0  0  0  0  0  0  0  0  0
   15.2673   -2.9425    0.7072 N   0  0  0  0  0  4  0  0  0  0  0  0
   16.2379   -2.9794    1.0187 H   0  0  0  0  0  0  0  0  0  0  0  0
   14.3553   -5.7706   -1.3621 C   0  0  0  0  0  0  0  0  0  0  0  0
   13.3265   -5.5150   -1.5970 H   0  0  0  0  0  0  0  0  0  0  0  0
  1  2  1  0
  2  3  1  0
  3  4  1  0
  3  5  1  0
  5  6  2  0
  5  7  1  0
  7  8  1  0
  7  9  2  3
  9 10  1  0
  9 11  1  0
 11 12  2  0
 12 13  1  0
 12 14  1  0
 14 15  1  0
 14 16  2  0
 16 17  1  0
 16 18  1  0
 18 19  1  0
 19 20  1  0
 20 21  2  0
 21 22  1  0
 21 23  1  0
 23 24  1  0
 23 25  2  0
 25 26  1  0
 25 27  1  0
 27 28  1  0
 27 29  2  0
 29 30  1  0
 19 31  1  0
 31 32  2  0
 31 33  1  0
 33 34  1  0
 34 35  1  0
 34 36  1  0
 34 37  1  0
 33 38  1  0
 38 39  1  0
 39 40  1  0
 39 41  1  0
 38 42  2  0
 42 43  1  0
 18 44  2  0
 44 45  1  0
 44 11  1  0
 42 19  1  0
 29 20  1  0
M  CHG  1  42   1
M  END
>  <score>  (438) 
5.01334

$$$$

     RDKit          3D

 47 49  0  0  0  0  0  0  0  0999 V2000
   10.5068   -6.1989   -0.8403 H   0  0  0  0  0  0  0  0  0  0  0  0
   10.8718   -6.7928   -1.5197 O   0  0  0  0  0  0  0  0  0  0  0  0
   11.8478   -7.4936   -0.8725 C   0  0  0  0  0  0  0  0  0  0  0  0
   12.0904   -7.2994    0.3103 O   0  0  0  0  0  0  0  0  0  0  0  0
   12.7706   -8.5557   -1.6014 C   0  0  1  0  0  0  0  0  0  0  0  0
   13.3025   -9.0690   -0.7904 H   0  0  0  0  0  0  0  0  0  0  0  0
   12.2051   -9.6379   -2.4835 N   0  0  0  0  0  0  0  0  0  0  0  0
   11.5633  -10.2474   -1.9756 H   0  0  0  0  0  0  0  0  0  0  0  0
   12.9472  -10.1980   -2.9162 H   0  0  0  0  0  0  0  0  0  0  0  0
   13.7955   -7.8338   -2.4904 C   0  0  0  0  0  0  0  0  0  0  0  0
   14.3508   -8.5809   -3.0666 H   0  0  0  0  0  0  0  0  0  0  0  0
   13.2971   -7.1752   -3.1903 H   0  0  0  0  0  0  0  0  0  0  0  0
   14.7367   -6.9360   -1.7482 C   0  0  0  0  0  0  0  0  0  0  0  0
   15.9762   -7.3990   -1.2999 C   0  0  0  0  0  0  0  0  0  0  0  0
   16.2494   -8.4371   -1.4506 H   0  0  0  0  0  0  0  0  0  0  0  0
   16.8779   -6.5182   -0.6909 C   0  0  0  0  0  0  0  0  0  0  0  0
   17.8482   -6.8716   -0.3486 H   0  0  0  0  0  0  0  0  0  0  0  0
   16.5315   -5.1730   -0.5224 C   0  0  0  0  0  0  0  0  0  0  0  0
   17.2331   -4.5019   -0.0334 H   0  0  0  0  0  0  0  0  0  0  0  0
   15.2803   -4.6970   -0.9487 C   0  0  0  0  0  0  0  0  0  0  0  0
   14.8684   -3.2555   -0.7153 C   0  0  0  0  0  0  0  0  0  0  0  0
   15.4004   -2.2687   -1.7452 C   0  0  0  0  0  0  0  0  0  0  0  0
   15.9341   -2.6780   -2.9788 C   0  0  0  0  0  0  0  0  0  0  0  0
   15.9839   -3.7341   -3.2269 H   0  0  0  0  0  0  0  0  0  0  0  0
   16.4051   -1.7305   -3.8961 C   0  0  0  0  0  0  0  0  0  0  0  0
   16.8189   -2.0488   -4.8445 H   0  0  0  0  0  0  0  0  0  0  0  0
   16.3465   -0.3674   -3.6019 C   0  0  0  0  0  0  0  0  0  0  0  0
   16.7309    0.3639   -4.3079 H   0  0  0  0  0  0  0  0  0  0  0  0
   15.7920    0.0488   -2.3914 C   0  0  0  0  0  0  0  0  0  0  0  0
   15.7327    1.1049   -2.1562 H   0  0  0  0  0  0  0  0  0  0  0  0
   15.3156   -0.8930   -1.4770 C   0  0  0  0  0  0  0  0  0  0  0  0
   14.8739   -0.5539   -0.5439 H   0  0  0  0  0  0  0  0  0  0  0  0
   13.3464   -3.0839   -0.5513 C   0  0  0  0  0  0  0  0  0  0  0  0
   12.4902   -3.2241   -1.4206 O   0  0  0  0  0  0  0  0  0  0  0  0
   13.0634   -2.6915    0.7430 N   0  0  0  0  0  0  0  0  0  0  0  0
   11.7560   -2.3197    1.2856 C   0  0  0  0  0  0  0  0  0  0  0  0
   11.5287   -2.9125    2.1804 H   0  0  0  0  0  0  0  0  0  0  0  0
   11.7511   -1.2584    1.5629 H   0  0  0  0  0  0  0  0  0  0  0  0
   10.9568   -2.4883    0.5513 H   0  0  0  0  0  0  0  0  0  0  0  0
   14.2685   -2.5891    1.4014 C   0  0  0  0  0  0  0  0  0  0  0  0
   14.4396   -2.2241    2.7034 N   0  0  0  0  0  0  0  0  0  0  0  0
   13.6197   -2.1231    3.2989 H   0  0  0  0  0  0  0  0  0  0  0  0
   15.3712   -2.2899    3.1117 H   0  0  0  0  0  0  0  0  0  0  0  0
   15.2752   -2.8854    0.6507 N   0  0  0  0  0  4  0  0  0  0  0  0
   16.2245   -3.0039    1.0056 H   0  0  0  0  0  0  0  0  0  0  0  0
   14.3979   -5.5898   -1.5680 C   0  0  0  0  0  0  0  0  0  0  0  0
   13.4421   -5.2228   -1.9287 H   0  0  0  0  0  0  0  0  0  0  0  0
  1  2  1  0
  2  3  1  0
  3  4  2  0
  3  5  1  0
  5  6  1  1
  5  7  1  0
  7  8  1  0
  7  9  1  0
  5 10  1  0
 10 11  1  0
 10 12  1  0
 10 13  1  0
 13 14  2  0
 14 15  1  0
 14 16  1  0
 16 17  1  0
 16 18  2  0
 18 19  1  0
 18 20  1  0
 20 21  1  0
 21 22  1  0
 22 23  2  0
 23 24  1  0
 23 25  1  0
 25 26  1  0
 25 27  2  0
 27 28  1  0
 27 29  1  0
 29 30  1  0
 29 31  2  0
 31 32  1  0
 21 33  1  0
 33 34  2  0
 33 35  1  0
 35 36  1  0
 36 37  1  0
 36 38  1  0
 36 39  1  0
 35 40  1  0
 40 41  1  0
 41 42  1  0
 41 43  1  0
 40 44  2  0
 44 45  1  0
 20 46  2  0
 46 47  1  0
 46 13  1  0
 44 21  1  0
 31 22  1  0
M  CHG  1  44   1
M  END
>  <score>  (439) 
5.00985

$$$$

     RDKit          3D

 40 42  0  0  0  0  0  0  0  0999 V2000
   16.1286   -8.4916   -1.6104 H   0  0  0  0  0  0  0  0  0  0  0  0
   15.8544   -7.4489   -1.4685 C   0  0  0  0  0  0  0  0  0  0  0  0
   16.7251   -6.5904   -0.7959 C   0  0  0  0  0  0  0  0  0  0  0  0
   17.6771   -6.9544   -0.4212 H   0  0  0  0  0  0  0  0  0  0  0  0
   16.3824   -5.2466   -0.6079 C   0  0  0  0  0  0  0  0  0  0  0  0
   17.0703   -4.6001   -0.0725 H   0  0  0  0  0  0  0  0  0  0  0  0
   15.1611   -4.7231   -1.0706 C   0  0  0  0  0  0  0  0  0  0  0  0
   14.8052   -3.2520   -0.7853 C   0  0  0  0  0  0  0  0  0  0  0  0
   15.3900   -2.2480   -1.7832 C   0  0  0  0  0  0  0  0  0  0  0  0
   15.9467   -2.6434   -3.0131 C   0  0  0  0  0  0  0  0  0  0  0  0
   16.0085   -3.6953   -3.2735 H   0  0  0  0  0  0  0  0  0  0  0  0
   16.4253   -1.6904   -3.9226 C   0  0  0  0  0  0  0  0  0  0  0  0
   16.8586   -2.0061   -4.8653 H   0  0  0  0  0  0  0  0  0  0  0  0
   16.3446   -0.3269   -3.6274 C   0  0  0  0  0  0  0  0  0  0  0  0
   16.6958    0.4033   -4.3516 H   0  0  0  0  0  0  0  0  0  0  0  0
   15.7933    0.0985   -2.4127 C   0  0  0  0  0  0  0  0  0  0  0  0
   15.6691    1.5746   -2.1010 C   0  0  0  0  0  0  0  0  0  0  0  0
   16.4542    2.1449   -2.6054 H   0  0  0  0  0  0  0  0  0  0  0  0
   15.7791    1.7523   -1.0279 H   0  0  0  0  0  0  0  0  0  0  0  0
   14.3641    2.0748   -2.5350 C   0  0  0  0  0  0  0  0  0  0  0  0
   13.3211    2.4681   -2.8859 N   0  0  0  0  0  0  0  0  0  0  0  0
   15.3207   -0.8660   -1.5067 C   0  0  0  0  0  0  0  0  0  0  0  0
   14.8915   -0.5290   -0.5678 H   0  0  0  0  0  0  0  0  0  0  0  0
   13.2902   -3.0179   -0.6123 C   0  0  0  0  0  0  0  0  0  0  0  0
   12.4216   -3.0772   -1.4800 O   0  0  0  0  0  0  0  0  0  0  0  0
   13.0198   -2.6675    0.6985 N   0  0  0  0  0  0  0  0  0  0  0  0
   11.7195   -2.3127    1.2618 C   0  0  0  0  0  0  0  0  0  0  0  0
   10.9164   -2.4759    0.5388 H   0  0  0  0  0  0  0  0  0  0  0  0
   11.5003   -2.9191    2.1436 H   0  0  0  0  0  0  0  0  0  0  0  0
   11.6915   -1.2614    1.5588 H   0  0  0  0  0  0  0  0  0  0  0  0
   14.2206   -2.6311    1.3672 C   0  0  0  0  0  0  0  0  0  0  0  0
   14.3893   -2.3414    2.6896 N   0  0  0  0  0  0  0  0  0  0  0  0
   15.3238   -2.3596    3.0989 H   0  0  0  0  0  0  0  0  0  0  0  0
   13.5798   -2.1270    3.2685 H   0  0  0  0  0  0  0  0  0  0  0  0
   15.2169   -2.9067    0.5912 N   0  0  0  0  0  4  0  0  0  0  0  0
   16.1911   -2.8916    0.8938 H   0  0  0  0  0  0  0  0  0  0  0  0
   14.2977   -5.6008   -1.7687 C   0  0  0  0  0  0  0  0  0  0  0  0
   13.3516   -5.2533   -2.1747 H   0  0  0  0  0  0  0  0  0  0  0  0
   14.6426   -6.9524   -1.9599 C   0  0  0  0  0  0  0  0  0  0  0  0
   13.9735   -7.6257   -2.4891 H   0  0  0  0  0  0  0  0  0  0  0  0
  1  2  1  0
  2  3  2  0
  3  4  1  0
  3  5  1  0
  5  6  1  0
  5  7  2  0
  7  8  1  0
  8  9  1  0
  9 10  2  0
 10 11  1  0
 10 12  1  0
 12 13  1  0
 12 14  2  0
 14 15  1  0
 14 16  1  0
 16 17  1  0
 17 18  1  0
 17 19  1  0
 17 20  1  0
 20 21  3  0
 16 22  2  0
 22 23  1  0
  8 24  1  0
 24 25  2  0
 24 26  1  0
 26 27  1  0
 27 28  1  0
 27 29  1  0
 27 30  1  0
 26 31  1  0
 31 32  1  0
 32 33  1  0
 32 34  1  0
 31 35  2  0
 35 36  1  0
  7 37  1  0
 37 38  1  0
 37 39  2  0
 39 40  1  0
 39  2  1  0
 35  8  1  0
 22  9  1  0
M  CHG  1  35   1
M  END
>  <score>  (440) 
5.00653

$$$$

     RDKit          3D

 48 50  0  0  0  0  0  0  0  0999 V2000
   13.5355  -11.9249   -1.3209 H   0  0  0  0  0  0  0  0  0  0  0  0
   12.7847  -11.3482   -1.1287 O   0  0  0  0  0  0  0  0  0  0  0  0
   12.7416  -10.5793   -2.2336 C   0  0  0  0  0  0  0  0  0  0  0  0
   13.4206  -10.7979   -3.2197 O   0  0  0  0  0  0  0  0  0  0  0  0
   11.9070   -9.3235   -2.2074 C   0  0  0  0  0  0  0  0  0  0  0  0
   11.6068   -9.0776   -3.2244 H   0  0  0  0  0  0  0  0  0  0  0  0
   11.0054   -9.5048   -1.6248 H   0  0  0  0  0  0  0  0  0  0  0  0
   12.7049   -8.1737   -1.5852 C   0  0  0  0  0  0  0  0  0  0  0  0
   12.0503   -7.3163   -1.4091 H   0  0  0  0  0  0  0  0  0  0  0  0
   13.1139   -8.4835   -0.6125 H   0  0  0  0  0  0  0  0  0  0  0  0
   13.8366   -7.7419   -2.5201 C   0  0  0  0  0  0  0  0  0  0  0  0
   14.3456   -8.6111   -2.9430 H   0  0  0  0  0  0  0  0  0  0  0  0
   13.4486   -7.1574   -3.3528 H   0  0  0  0  0  0  0  0  0  0  0  0
   14.7969   -6.8595   -1.7937 C   0  0  0  0  0  0  0  0  0  0  0  0
   16.0232   -7.3429   -1.3304 C   0  0  0  0  0  0  0  0  0  0  0  0
   16.2824   -8.3866   -1.4735 H   0  0  0  0  0  0  0  0  0  0  0  0
   16.9128   -6.4774   -0.6872 C   0  0  0  0  0  0  0  0  0  0  0  0
   17.8652   -6.8437   -0.3199 H   0  0  0  0  0  0  0  0  0  0  0  0
   16.5738   -5.1359   -0.5013 C   0  0  0  0  0  0  0  0  0  0  0  0
   17.2741   -4.4804    0.0081 H   0  0  0  0  0  0  0  0  0  0  0  0
   15.3285   -4.6492   -0.9328 C   0  0  0  0  0  0  0  0  0  0  0  0
   14.8930   -3.2216   -0.6817 C   0  0  0  0  0  0  0  0  0  0  0  0
   15.4163   -2.2468   -1.7220 C   0  0  0  0  0  0  0  0  0  0  0  0
   15.9395   -2.6670   -2.9604 C   0  0  0  0  0  0  0  0  0  0  0  0
   15.9898   -3.7230   -3.2073 H   0  0  0  0  0  0  0  0  0  0  0  0
   16.4084   -1.7325   -3.8920 C   0  0  0  0  0  0  0  0  0  0  0  0
   16.8214   -2.0644   -4.8390 H   0  0  0  0  0  0  0  0  0  0  0  0
   16.3509   -0.3670   -3.6026 C   0  0  0  0  0  0  0  0  0  0  0  0
   16.7244    0.3588   -4.3193 H   0  0  0  0  0  0  0  0  0  0  0  0
   15.8004    0.0616   -2.3920 C   0  0  0  0  0  0  0  0  0  0  0  0
   15.7384    1.1196   -2.1620 H   0  0  0  0  0  0  0  0  0  0  0  0
   15.3277   -0.8710   -1.4664 C   0  0  0  0  0  0  0  0  0  0  0  0
   14.8948   -0.5279   -0.5307 H   0  0  0  0  0  0  0  0  0  0  0  0
   13.3650   -3.0672   -0.5285 C   0  0  0  0  0  0  0  0  0  0  0  0
   12.5057   -3.2525   -1.3918 O   0  0  0  0  0  0  0  0  0  0  0  0
   13.0749   -2.6674    0.7593 N   0  0  0  0  0  0  0  0  0  0  0  0
   11.7642   -2.3108    1.2958 C   0  0  0  0  0  0  0  0  0  0  0  0
   11.5355   -2.9077    2.1847 H   0  0  0  0  0  0  0  0  0  0  0  0
   10.9734   -2.4852    0.5574 H   0  0  0  0  0  0  0  0  0  0  0  0
   11.7428   -1.2512    1.5697 H   0  0  0  0  0  0  0  0  0  0  0  0
   14.2763   -2.5571    1.4265 C   0  0  0  0  0  0  0  0  0  0  0  0
   14.4488   -2.2112    2.7298 N   0  0  0  0  0  0  0  0  0  0  0  0
   15.3862   -2.2725    3.1278 H   0  0  0  0  0  0  0  0  0  0  0  0
   13.6378   -2.1125    3.3348 H   0  0  0  0  0  0  0  0  0  0  0  0
   15.2902   -2.8347    0.6825 N   0  0  0  0  0  4  0  0  0  0  0  0
   16.2413   -2.9441    1.0399 H   0  0  0  0  0  0  0  0  0  0  0  0
   14.4593   -5.5201   -1.5940 C   0  0  0  0  0  0  0  0  0  0  0  0
   13.5010   -5.1512   -1.9470 H   0  0  0  0  0  0  0  0  0  0  0  0
  1  2  1  0
  2  3  1  0
  3  4  2  0
  3  5  1  0
  5  6  1  0
  5  7  1  0
  5  8  1  0
  8  9  1  0
  8 10  1  0
  8 11  1  0
 11 12  1  0
 11 13  1  0
 11 14  1  0
 14 15  2  0
 15 16  1  0
 15 17  1  0
 17 18  1  0
 17 19  2  0
 19 20  1  0
 19 21  1  0
 21 22  1  0
 22 23  1  0
 23 24  2  0
 24 25  1  0
 24 26  1  0
 26 27  1  0
 26 28  2  0
 28 29  1  0
 28 30  1  0
 30 31  1  0
 30 32  2  0
 32 33  1  0
 22 34  1  0
 34 35  2  0
 34 36  1  0
 36 37  1  0
 37 38  1  0
 37 39  1  0
 37 40  1  0
 36 41  1  0
 41 42  1  0
 42 43  1  0
 42 44  1  0
 41 45  2  0
 45 46  1  0
 21 47  2  0
 47 48  1  0
 47 14  1  0
 45 22  1  0
 32 23  1  0
M  CHG  1  45   1
M  END
>  <score>  (441) 
5.00489

$$$$

     RDKit          3D

 42 44  0  0  0  0  0  0  0  0999 V2000
    9.9620  -10.0740   -2.2484 H   0  0  0  0  0  0  0  0  0  0  0  0
   11.0030   -9.8101   -2.3167 C   0  0  0  0  0  0  0  0  0  0  0  0
   12.1840   -9.4923   -2.3639 C   0  0  0  0  0  0  0  0  0  0  0  0
   13.5884   -9.0574   -2.4515 C   0  0  0  0  0  0  0  0  0  0  0  0
   14.1704   -9.4002   -1.5894 H   0  0  0  0  0  0  0  0  0  0  0  0
   14.0335   -9.5126   -3.3353 H   0  0  0  0  0  0  0  0  0  0  0  0
   13.5850   -7.6299   -2.5783 O   0  0  0  0  0  0  0  0  0  0  0  0
   14.5469   -6.9012   -1.9191 C   0  0  0  0  0  0  0  0  0  0  0  0
   15.7644   -7.4299   -1.4588 C   0  0  0  0  0  0  0  0  0  0  0  0
   15.9829   -8.4806   -1.6144 H   0  0  0  0  0  0  0  0  0  0  0  0
   16.7042   -6.6027   -0.8184 C   0  0  0  0  0  0  0  0  0  0  0  0
   17.6576   -6.9972   -0.4660 H   0  0  0  0  0  0  0  0  0  0  0  0
   16.4088   -5.2481   -0.6132 C   0  0  0  0  0  0  0  0  0  0  0  0
   17.1120   -4.6121   -0.0822 H   0  0  0  0  0  0  0  0  0  0  0  0
   15.1918   -4.6988   -1.0472 C   0  0  0  0  0  0  0  0  0  0  0  0
   14.8353   -3.2429   -0.7591 C   0  0  0  0  0  0  0  0  0  0  0  0
   15.3944   -2.2474   -1.7699 C   0  0  0  0  0  0  0  0  0  0  0  0
   15.9414   -2.6528   -3.0011 C   0  0  0  0  0  0  0  0  0  0  0  0
   15.9962   -3.7098   -3.2457 H   0  0  0  0  0  0  0  0  0  0  0  0
   16.4180   -1.7048   -3.9177 C   0  0  0  0  0  0  0  0  0  0  0  0
   16.8440   -2.0211   -4.8643 H   0  0  0  0  0  0  0  0  0  0  0  0
   16.3475   -0.3407   -3.6196 C   0  0  0  0  0  0  0  0  0  0  0  0
   16.7191    0.3933   -4.3292 H   0  0  0  0  0  0  0  0  0  0  0  0
   15.7947    0.0762   -2.4060 C   0  0  0  0  0  0  0  0  0  0  0  0
   15.7335    1.1342   -2.1684 H   0  0  0  0  0  0  0  0  0  0  0  0
   15.3187   -0.8707   -1.4936 C   0  0  0  0  0  0  0  0  0  0  0  0
   14.8866   -0.5358   -0.5547 H   0  0  0  0  0  0  0  0  0  0  0  0
   13.3157   -3.0381   -0.5913 C   0  0  0  0  0  0  0  0  0  0  0  0
   12.4526   -3.1420   -1.4620 O   0  0  0  0  0  0  0  0  0  0  0  0
   13.0380   -2.6832    0.7148 N   0  0  0  0  0  0  0  0  0  0  0  0
   11.7334   -2.3169    1.2718 C   0  0  0  0  0  0  0  0  0  0  0  0
   11.5074   -2.9183    2.1595 H   0  0  0  0  0  0  0  0  0  0  0  0
   11.7204   -1.2594    1.5584 H   0  0  0  0  0  0  0  0  0  0  0  0
   10.9314   -2.4797    0.5425 H   0  0  0  0  0  0  0  0  0  0  0  0
   14.2435   -2.6192    1.3781 C   0  0  0  0  0  0  0  0  0  0  0  0
   14.4147   -2.2936    2.6891 N   0  0  0  0  0  0  0  0  0  0  0  0
   13.5997   -2.1231    3.2756 H   0  0  0  0  0  0  0  0  0  0  0  0
   15.3500   -2.3276    3.0933 H   0  0  0  0  0  0  0  0  0  0  0  0
   15.2487   -2.9046    0.6177 N   0  0  0  0  0  4  0  0  0  0  0  0
   16.2145   -2.9495    0.9457 H   0  0  0  0  0  0  0  0  0  0  0  0
   14.2877   -5.5423   -1.7164 C   0  0  0  0  0  0  0  0  0  0  0  0
   13.3441   -5.1569   -2.0826 H   0  0  0  0  0  0  0  0  0  0  0  0
  1  2  1  0
  2  3  3  0
  3  4  1  0
  4  5  1  0
  4  6  1  0
  4  7  1  0
  7  8  1  0
  8  9  2  0
  9 10  1  0
  9 11  1  0
 11 12  1  0
 11 13  2  0
 13 14  1  0
 13 15  1  0
 15 16  1  0
 16 17  1  0
 17 18  2  0
 18 19  1  0
 18 20  1  0
 20 21  1  0
 20 22  2  0
 22 23  1  0
 22 24  1  0
 24 25  1  0
 24 26  2  0
 26 27  1  0
 16 28  1  0
 28 29  2  0
 28 30  1  0
 30 31  1  0
 31 32  1  0
 31 33  1  0
 31 34  1  0
 30 35  1  0
 35 36  1  0
 36 37  1  0
 36 38  1  0
 35 39  2  0
 39 40  1  0
 15 41  2  0
 41 42  1  0
 41  8  1  0
 39 16  1  0
 26 17  1  0
M  CHG  1  39   1
M  END
>  <score>  (442) 
5.00237

$$$$

     RDKit          3D

 45 48  0  0  0  0  0  0  0  0999 V2000
   14.3832   -9.0621   -2.3893 H   0  0  0  0  0  0  0  0  0  0  0  0
   13.9003   -8.1399   -2.0574 C   0  0  0  0  0  0  0  0  0  0  0  0
   12.5152   -8.1546   -2.0168 C   0  0  0  0  0  0  0  0  0  0  0  0
   11.4768   -6.8294   -1.4979 S   0  0  0  0  0  0  0  0  0  0  0  0
   10.0731   -7.8891   -1.6467 C   0  0  0  0  0  0  0  0  0  0  0  0
    8.9405   -7.6864   -1.2457 O   0  0  0  0  0  0  0  0  0  0  0  0
   10.3429   -9.0895   -2.2217 N   0  0  0  0  0  0  0  0  0  0  0  0
    9.7034   -9.8615   -2.1061 H   0  0  0  0  0  0  0  0  0  0  0  0
   11.6807   -9.3198   -2.3274 C   0  0  0  0  0  0  0  0  0  0  0  0
   12.0258  -10.4848   -2.3459 O   0  0  0  0  0  0  0  0  0  0  0  0
   14.7885   -7.0362   -1.6071 C   0  0  0  0  0  0  0  0  0  0  0  0
   16.1268   -7.3546   -1.3365 C   0  0  0  0  0  0  0  0  0  0  0  0
   16.4743   -8.3763   -1.4712 H   0  0  0  0  0  0  0  0  0  0  0  0
   17.0108   -6.3906   -0.8389 C   0  0  0  0  0  0  0  0  0  0  0  0
   18.0354   -6.6578   -0.6003 H   0  0  0  0  0  0  0  0  0  0  0  0
   16.5715   -5.0867   -0.6195 C   0  0  0  0  0  0  0  0  0  0  0  0
   17.2638   -4.3538   -0.2097 H   0  0  0  0  0  0  0  0  0  0  0  0
   15.2496   -4.7137   -0.8810 C   0  0  0  0  0  0  0  0  0  0  0  0
   14.8494   -3.2585   -0.6102 C   0  0  0  0  0  0  0  0  0  0  0  0
   15.3956   -2.2691   -1.6439 C   0  0  0  0  0  0  0  0  0  0  0  0
   15.9233   -2.6989   -2.8750 C   0  0  0  0  0  0  0  0  0  0  0  0
   15.9673   -3.7591   -3.0986 H   0  0  0  0  0  0  0  0  0  0  0  0
   16.3961   -1.7792   -3.8233 C   0  0  0  0  0  0  0  0  0  0  0  0
   16.8036   -2.1242   -4.7687 H   0  0  0  0  0  0  0  0  0  0  0  0
   16.3433   -0.4074   -3.5621 C   0  0  0  0  0  0  0  0  0  0  0  0
   16.7099    0.3043   -4.2991 H   0  0  0  0  0  0  0  0  0  0  0  0
   15.8175    0.0426   -2.3478 C   0  0  0  0  0  0  0  0  0  0  0  0
   15.7752    1.1096   -2.1431 H   0  0  0  0  0  0  0  0  0  0  0  0
   15.3458   -0.8801   -1.4024 C   0  0  0  0  0  0  0  0  0  0  0  0
   14.9396   -0.5037   -0.4676 H   0  0  0  0  0  0  0  0  0  0  0  0
   13.3355   -3.0565   -0.4192 C   0  0  0  0  0  0  0  0  0  0  0  0
   12.4463   -3.2771   -1.2377 O   0  0  0  0  0  0  0  0  0  0  0  0
   13.0868   -2.5654    0.8484 N   0  0  0  0  0  0  0  0  0  0  0  0
   11.7798   -2.2464    1.4273 C   0  0  0  0  0  0  0  0  0  0  0  0
   11.7248   -1.1845    1.7004 H   0  0  0  0  0  0  0  0  0  0  0  0
   11.5952   -2.8489    2.3265 H   0  0  0  0  0  0  0  0  0  0  0  0
   10.9785   -2.4558    0.7077 H   0  0  0  0  0  0  0  0  0  0  0  0
   14.3018   -2.4722    1.4900 C   0  0  0  0  0  0  0  0  0  0  0  0
   14.4932   -2.0588    2.7753 N   0  0  0  0  0  0  0  0  0  0  0  0
   15.4120   -2.2142    3.1857 H   0  0  0  0  0  0  0  0  0  0  0  0
   13.6834   -2.0285    3.3934 H   0  0  0  0  0  0  0  0  0  0  0  0
   15.2851   -2.8561    0.7446 N   0  0  0  0  0  4  0  0  0  0  0  0
   16.2584   -2.8854    1.0557 H   0  0  0  0  0  0  0  0  0  0  0  0
   14.3578   -5.7041   -1.3760 C   0  0  0  0  0  0  0  0  0  0  0  0
   13.3244   -5.4407   -1.5602 H   0  0  0  0  0  0  0  0  0  0  0  0
  1  2  1  0
  2  3  2  3
  3  4  1  0
  4  5  1  0
  5  6  2  0
  5  7  1  0
  7  8  1  0
  7  9  1  0
  9 10  2  0
  2 11  1  0
 11 12  2  0
 12 13  1  0
 12 14  1  0
 14 15  1  0
 14 16  2  0
 16 17  1  0
 16 18  1  0
 18 19  1  0
 19 20  1  0
 20 21  2  0
 21 22  1  0
 21 23  1  0
 23 24  1  0
 23 25  2  0
 25 26  1  0
 25 27  1  0
 27 28  1  0
 27 29  2  0
 29 30  1  0
 19 31  1  0
 31 32  2  0
 31 33  1  0
 33 34  1  0
 34 35  1  0
 34 36  1  0
 34 37  1  0
 33 38  1  0
 38 39  1  0
 39 40  1  0
 39 41  1  0
 38 42  2  0
 42 43  1  0
 18 44  2  0
 44 45  1  0
  9  3  1  0
 44 11  1  0
 42 19  1  0
 29 20  1  0
M  CHG  1  42   1
M  END
>  <score>  (443) 
4.99974

$$$$

     RDKit          3D

 43 45  0  0  0  0  0  0  0  0999 V2000
   12.7154  -10.0236   -4.9538 H   0  0  0  0  0  0  0  0  0  0  0  0
   13.3702   -9.4879   -4.4645 O   0  0  0  0  0  0  0  0  0  0  0  0
   13.0133   -9.6828   -3.1766 C   0  0  0  0  0  0  0  0  0  0  0  0
   12.1431  -10.4696   -2.8358 O   0  0  0  0  0  0  0  0  0  0  0  0
   13.8249   -8.9674   -2.1087 C   0  0  0  0  0  0  0  0  0  0  0  0
   13.5772   -9.3842   -1.1316 H   0  0  0  0  0  0  0  0  0  0  0  0
   14.8685   -9.1854   -2.3271 H   0  0  0  0  0  0  0  0  0  0  0  0
   13.6042   -7.5457   -2.0735 O   0  0  0  0  0  0  0  0  0  0  0  0
   14.6197   -6.7820   -1.5498 C   0  0  0  0  0  0  0  0  0  0  0  0
   15.8841   -7.2728   -1.1770 C   0  0  0  0  0  0  0  0  0  0  0  0
   16.0805   -8.3377   -1.2565 H   0  0  0  0  0  0  0  0  0  0  0  0
   16.8770   -6.3905   -0.7117 C   0  0  0  0  0  0  0  0  0  0  0  0
   17.8684   -6.7345   -0.4259 H   0  0  0  0  0  0  0  0  0  0  0  0
   16.5894   -5.0282   -0.5673 C   0  0  0  0  0  0  0  0  0  0  0  0
   17.3330   -4.3349   -0.1831 H   0  0  0  0  0  0  0  0  0  0  0  0
   15.3135   -4.5411   -0.8701 C   0  0  0  0  0  0  0  0  0  0  0  0
   14.9322   -3.0935   -0.6290 C   0  0  0  0  0  0  0  0  0  0  0  0
   15.4490   -2.1433   -1.6955 C   0  0  0  0  0  0  0  0  0  0  0  0
   15.9532   -2.5999   -2.9281 C   0  0  0  0  0  0  0  0  0  0  0  0
   15.9842   -3.6666   -3.1331 H   0  0  0  0  0  0  0  0  0  0  0  0
   16.4162   -1.6905   -3.8902 C   0  0  0  0  0  0  0  0  0  0  0  0
   16.8129   -2.0453   -4.8379 H   0  0  0  0  0  0  0  0  0  0  0  0
   16.3670   -0.3152   -3.6313 C   0  0  0  0  0  0  0  0  0  0  0  0
   16.7365    0.3910   -4.3694 H   0  0  0  0  0  0  0  0  0  0  0  0
   15.8310    0.1509   -2.4255 C   0  0  0  0  0  0  0  0  0  0  0  0
   15.7718    1.2177   -2.2241 H   0  0  0  0  0  0  0  0  0  0  0  0
   15.3683   -0.7598   -1.4715 C   0  0  0  0  0  0  0  0  0  0  0  0
   14.9451   -0.3916   -0.5403 H   0  0  0  0  0  0  0  0  0  0  0  0
   13.4079   -2.9357   -0.4803 C   0  0  0  0  0  0  0  0  0  0  0  0
   12.5423   -3.1214   -1.3364 O   0  0  0  0  0  0  0  0  0  0  0  0
   13.1123   -2.5568    0.8088 N   0  0  0  0  0  0  0  0  0  0  0  0
   11.7773   -2.2801    1.3379 C   0  0  0  0  0  0  0  0  0  0  0  0
   11.5563   -2.9003    2.2136 H   0  0  0  0  0  0  0  0  0  0  0  0
   11.0116   -2.4883    0.5829 H   0  0  0  0  0  0  0  0  0  0  0  0
   11.6923   -1.2259    1.6172 H   0  0  0  0  0  0  0  0  0  0  0  0
   14.3058   -2.4595    1.4880 C   0  0  0  0  0  0  0  0  0  0  0  0
   14.4623   -2.2192    2.8176 N   0  0  0  0  0  0  0  0  0  0  0  0
   13.6470   -2.1000    3.4172 H   0  0  0  0  0  0  0  0  0  0  0  0
   15.4018   -2.2166    3.2108 H   0  0  0  0  0  0  0  0  0  0  0  0
   15.3329   -2.6850    0.7354 N   0  0  0  0  0  4  0  0  0  0  0  0
   16.2617   -2.8501    1.1242 H   0  0  0  0  0  0  0  0  0  0  0  0
   14.3623   -5.4262   -1.3916 C   0  0  0  0  0  0  0  0  0  0  0  0
   13.3797   -5.0754   -1.6818 H   0  0  0  0  0  0  0  0  0  0  0  0
  1  2  1  0
  2  3  1  0
  3  4  2  0
  3  5  1  0
  5  6  1  0
  5  7  1  0
  5  8  1  0
  8  9  1  0
  9 10  2  0
 10 11  1  0
 10 12  1  0
 12 13  1  0
 12 14  2  0
 14 15  1  0
 14 16  1  0
 16 17  1  0
 17 18  1  0
 18 19  2  0
 19 20  1  0
 19 21  1  0
 21 22  1  0
 21 23  2  0
 23 24  1  0
 23 25  1  0
 25 26  1  0
 25 27  2  0
 27 28  1  0
 17 29  1  0
 29 30  2  0
 29 31  1  0
 31 32  1  0
 32 33  1  0
 32 34  1  0
 32 35  1  0
 31 36  1  0
 36 37  1  0
 37 38  1  0
 37 39  1  0
 36 40  2  0
 40 41  1  0
 16 42  2  0
 42 43  1  0
 42  9  1  0
 40 17  1  0
 27 18  1  0
M  CHG  1  40   1
M  END
>  <score>  (444) 
4.99532

$$$$

     RDKit          3D

 40 42  0  0  0  0  0  0  0  0999 V2000
   12.3868   -9.4404   -3.9035 H   0  0  0  0  0  0  0  0  0  0  0  0
   13.0575   -9.9097   -3.3844 O   0  0  0  0  0  0  0  0  0  0  0  0
   14.0397   -9.0443   -2.8368 N   0  0  0  0  0  0  0  0  0  0  0  0
   13.7111   -7.8228   -2.4927 C   0  0  0  0  0  0  0  0  0  0  0  0
   12.6983   -7.4499   -2.6228 H   0  0  0  0  0  0  0  0  0  0  0  0
   14.6981   -6.9256   -1.9089 C   0  0  0  0  0  0  0  0  0  0  0  0
   15.9359   -7.4019   -1.4531 C   0  0  0  0  0  0  0  0  0  0  0  0
   16.1865   -8.4563   -1.5661 H   0  0  0  0  0  0  0  0  0  0  0  0
   16.8126   -6.5387   -0.7847 C   0  0  0  0  0  0  0  0  0  0  0  0
   17.7378   -6.9308   -0.3713 H   0  0  0  0  0  0  0  0  0  0  0  0
   16.4650   -5.1931   -0.5863 C   0  0  0  0  0  0  0  0  0  0  0  0
   17.1052   -4.5180   -0.0199 H   0  0  0  0  0  0  0  0  0  0  0  0
   15.2410   -4.6986   -1.0610 C   0  0  0  0  0  0  0  0  0  0  0  0
   14.8303   -3.2554   -0.7649 C   0  0  0  0  0  0  0  0  0  0  0  0
   15.3878   -2.2538   -1.7694 C   0  0  0  0  0  0  0  0  0  0  0  0
   15.9388   -2.6527   -3.0002 C   0  0  0  0  0  0  0  0  0  0  0  0
   15.9871   -3.7118   -3.2262 H   0  0  0  0  0  0  0  0  0  0  0  0
   16.4181   -1.7078   -3.9226 C   0  0  0  0  0  0  0  0  0  0  0  0
   16.8443   -2.0149   -4.8723 H   0  0  0  0  0  0  0  0  0  0  0  0
   16.3479   -0.3471   -3.6216 C   0  0  0  0  0  0  0  0  0  0  0  0
   16.7255    0.3950   -4.3207 H   0  0  0  0  0  0  0  0  0  0  0  0
   15.7933    0.0585   -2.4065 C   0  0  0  0  0  0  0  0  0  0  0  0
   15.7341    1.1117   -2.1671 H   0  0  0  0  0  0  0  0  0  0  0  0
   15.3132   -0.8817   -1.4905 C   0  0  0  0  0  0  0  0  0  0  0  0
   14.8780   -0.5480   -0.5518 H   0  0  0  0  0  0  0  0  0  0  0  0
   13.3046   -3.0442   -0.5878 C   0  0  0  0  0  0  0  0  0  0  0  0
   12.4390   -3.1286   -1.4554 O   0  0  0  0  0  0  0  0  0  0  0  0
   13.0271   -2.6816    0.7177 N   0  0  0  0  0  0  0  0  0  0  0  0
   11.7229   -2.3116    1.2794 C   0  0  0  0  0  0  0  0  0  0  0  0
   11.7124   -1.2519    1.5657 H   0  0  0  0  0  0  0  0  0  0  0  0
   10.9161   -2.4726    0.5512 H   0  0  0  0  0  0  0  0  0  0  0  0
   11.5035   -2.9174    2.1683 H   0  0  0  0  0  0  0  0  0  0  0  0
   14.2413   -2.6243    1.3681 C   0  0  0  0  0  0  0  0  0  0  0  0
   14.4165   -2.2934    2.6722 N   0  0  0  0  0  0  0  0  0  0  0  0
   15.3548   -2.3309    3.0723 H   0  0  0  0  0  0  0  0  0  0  0  0
   13.6031   -2.1229    3.2589 H   0  0  0  0  0  0  0  0  0  0  0  0
   15.2460   -2.9200    0.6110 N   0  0  0  0  0  4  0  0  0  0  0  0
   16.2103   -2.9910    0.9473 H   0  0  0  0  0  0  0  0  0  0  0  0
   14.3787   -5.5737   -1.7359 C   0  0  0  0  0  0  0  0  0  0  0  0
   13.4234   -5.1896   -2.0727 H   0  0  0  0  0  0  0  0  0  0  0  0
  1  2  1  0
  2  3  1  0
  3  4  2  3
  4  5  1  0
  4  6  1  0
  6  7  2  0
  7  8  1  0
  7  9  1  0
  9 10  1  0
  9 11  2  0
 11 12  1  0
 11 13  1  0
 13 14  1  0
 14 15  1  0
 15 16  2  0
 16 17  1  0
 16 18  1  0
 18 19  1  0
 18 20  2  0
 20 21  1  0
 20 22  1  0
 22 23  1  0
 22 24  2  0
 24 25  1  0
 14 26  1  0
 26 27  2  0
 26 28  1  0
 28 29  1  0
 29 30  1  0
 29 31  1  0
 29 32  1  0
 28 33  1  0
 33 34  1  0
 34 35  1  0
 34 36  1  0
 33 37  2  0
 37 38  1  0
 13 39  2  0
 39 40  1  0
 39  6  1  0
 37 14  1  0
 24 15  1  0
M  CHG  1  37   1
M  END
>  <score>  (445) 
4.98804

$$$$

     RDKit          3D

 51 54  0  0  0  0  0  0  0  0999 V2000
    8.5745  -11.5135   -2.0577 H   0  0  0  0  0  0  0  0  0  0  0  0
    9.4251  -10.8594   -1.9122 C   0  0  0  0  0  0  0  0  0  0  0  0
    9.7567  -10.4387   -0.6158 C   0  0  0  0  0  0  0  0  0  0  0  0
    9.1930  -10.7862    0.2478 H   0  0  0  0  0  0  0  0  0  0  0  0
   10.8266   -9.5560   -0.4372 C   0  0  0  0  0  0  0  0  0  0  0  0
   11.0871   -9.1949    0.5511 H   0  0  0  0  0  0  0  0  0  0  0  0
   11.5836   -9.1216   -1.5200 C   0  0  0  0  0  0  0  0  0  0  0  0
   12.6258   -8.2405   -1.2364 N   0  0  0  0  0  0  0  0  0  0  0  0
   12.7443   -7.9861   -0.2539 H   0  0  0  0  0  0  0  0  0  0  0  0
   13.7181   -7.9235   -2.1722 C   0  0  0  0  0  0  0  0  0  0  0  0
   14.2066   -8.8449   -2.5076 H   0  0  0  0  0  0  0  0  0  0  0  0
   13.2994   -7.4285   -3.0436 H   0  0  0  0  0  0  0  0  0  0  0  0
   14.7357   -6.9836   -1.5697 C   0  0  0  0  0  0  0  0  0  0  0  0
   16.0122   -7.4243   -1.1822 C   0  0  0  0  0  0  0  0  0  0  0  0
   16.2902   -8.4706   -1.2927 H   0  0  0  0  0  0  0  0  0  0  0  0
   16.9385   -6.5141   -0.6539 C   0  0  0  0  0  0  0  0  0  0  0  0
   17.9268   -6.8458   -0.3471 H   0  0  0  0  0  0  0  0  0  0  0  0
   16.5937   -5.1700   -0.4964 C   0  0  0  0  0  0  0  0  0  0  0  0
   17.3181   -4.4770   -0.0769 H   0  0  0  0  0  0  0  0  0  0  0  0
   15.3211   -4.7132   -0.8643 C   0  0  0  0  0  0  0  0  0  0  0  0
   14.9192   -3.2709   -0.6313 C   0  0  0  0  0  0  0  0  0  0  0  0
   15.4290   -2.2915   -1.6794 C   0  0  0  0  0  0  0  0  0  0  0  0
   15.9402   -2.7148   -2.9201 C   0  0  0  0  0  0  0  0  0  0  0  0
   15.9841   -3.7734   -3.1553 H   0  0  0  0  0  0  0  0  0  0  0  0
   16.4025   -1.7839   -3.8603 C   0  0  0  0  0  0  0  0  0  0  0  0
   16.8045   -2.1203   -4.8110 H   0  0  0  0  0  0  0  0  0  0  0  0
   16.3472   -0.4152   -3.5734 C   0  0  0  0  0  0  0  0  0  0  0  0
   16.7205    0.3063   -4.2950 H   0  0  0  0  0  0  0  0  0  0  0  0
   15.8014    0.0204   -2.3613 C   0  0  0  0  0  0  0  0  0  0  0  0
   15.7403    1.0827   -2.1377 H   0  0  0  0  0  0  0  0  0  0  0  0
   15.3362   -0.9108   -1.4278 C   0  0  0  0  0  0  0  0  0  0  0  0
   14.9041   -0.5601   -0.4929 H   0  0  0  0  0  0  0  0  0  0  0  0
   13.3975   -3.1113   -0.4659 C   0  0  0  0  0  0  0  0  0  0  0  0
   12.5243   -3.3627   -1.2955 O   0  0  0  0  0  0  0  0  0  0  0  0
   13.1244   -2.6329    0.7969 N   0  0  0  0  0  0  0  0  0  0  0  0
   11.8051   -2.2927    1.3319 C   0  0  0  0  0  0  0  0  0  0  0  0
   11.5769   -2.8886    2.2233 H   0  0  0  0  0  0  0  0  0  0  0  0
   11.0227   -2.4848    0.5894 H   0  0  0  0  0  0  0  0  0  0  0  0
   11.7630   -1.2310    1.5981 H   0  0  0  0  0  0  0  0  0  0  0  0
   14.3237   -2.5146    1.4640 C   0  0  0  0  0  0  0  0  0  0  0  0
   14.5001   -2.1168    2.7552 N   0  0  0  0  0  0  0  0  0  0  0  0
   15.4326   -2.2163    3.1544 H   0  0  0  0  0  0  0  0  0  0  0  0
   13.6922   -2.0876    3.3782 H   0  0  0  0  0  0  0  0  0  0  0  0
   15.3281   -2.8644    0.7319 N   0  0  0  0  0  4  0  0  0  0  0  0
   16.2742   -2.9719    1.0937 H   0  0  0  0  0  0  0  0  0  0  0  0
   14.4125   -5.6250   -1.4214 C   0  0  0  0  0  0  0  0  0  0  0  0
   13.4313   -5.2792   -1.7300 H   0  0  0  0  0  0  0  0  0  0  0  0
   11.2674   -9.5823   -2.8091 C   0  0  0  0  0  0  0  0  0  0  0  0
   11.8632   -9.2732   -3.6513 H   0  0  0  0  0  0  0  0  0  0  0  0
   10.1758  -10.4433   -3.0173 C   0  0  0  0  0  0  0  0  0  0  0  0
    9.9144  -10.7861   -4.0214 H   0  0  0  0  0  0  0  0  0  0  0  0
  1  2  1  0
  2  3  2  0
  3  4  1  0
  3  5  1  0
  5  6  1  0
  5  7  2  0
  7  8  1  0
  8  9  1  0
  8 10  1  0
 10 11  1  0
 10 12  1  0
 10 13  1  0
 13 14  2  0
 14 15  1  0
 14 16  1  0
 16 17  1  0
 16 18  2  0
 18 19  1  0
 18 20  1  0
 20 21  1  0
 21 22  1  0
 22 23  2  0
 23 24  1  0
 23 25  1  0
 25 26  1  0
 25 27  2  0
 27 28  1  0
 27 29  1  0
 29 30  1  0
 29 31  2  0
 31 32  1  0
 21 33  1  0
 33 34  2  0
 33 35  1  0
 35 36  1  0
 36 37  1  0
 36 38  1  0
 36 39  1  0
 35 40  1  0
 40 41  1  0
 41 42  1  0
 41 43  1  0
 40 44  2  0
 44 45  1  0
 20 46  2  0
 46 47  1  0
  7 48  1  0
 48 49  1  0
 48 50  2  0
 50 51  1  0
 50  2  1  0
 46 13  1  0
 44 21  1  0
 31 22  1  0
M  CHG  1  44   1
M  END
>  <score>  (446) 
4.98794

$$$$

     RDKit          3D

 49 52  0  0  0  0  0  0  0  0999 V2000
   11.0060  -10.5764   -3.0280 H   0  0  0  0  0  0  0  0  0  0  0  0
   11.6974   -9.8191   -2.6800 C   0  0  0  0  0  0  0  0  0  0  0  0
   13.0104  -10.1135   -2.6745 N   0  0  0  0  0  0  0  0  0  0  0  0
   13.8523   -9.1630   -2.2387 C   0  0  0  0  0  0  0  0  0  0  0  0
   14.9142   -9.3800   -2.2452 H   0  0  0  0  0  0  0  0  0  0  0  0
   13.4358   -7.8959   -1.7738 C   0  0  0  0  0  0  0  0  0  0  0  0
   14.4425   -6.9094   -1.3390 C   0  0  0  0  0  0  0  0  0  0  0  0
   15.7784   -7.3071   -1.1750 C   0  0  0  0  0  0  0  0  0  0  0  0
   16.0452   -8.3494   -1.3129 H   0  0  0  0  0  0  0  0  0  0  0  0
   16.7723   -6.3822   -0.8500 C   0  0  0  0  0  0  0  0  0  0  0  0
   17.8010   -6.7011   -0.7179 H   0  0  0  0  0  0  0  0  0  0  0  0
   16.4373   -5.0344   -0.7045 C   0  0  0  0  0  0  0  0  0  0  0  0
   17.2103   -4.3049   -0.4816 H   0  0  0  0  0  0  0  0  0  0  0  0
   15.1072   -4.6072   -0.8291 C   0  0  0  0  0  0  0  0  0  0  0  0
   14.7650   -3.1397   -0.6037 C   0  0  0  0  0  0  0  0  0  0  0  0
   15.3602   -2.1865   -1.6451 C   0  0  0  0  0  0  0  0  0  0  0  0
   15.8923   -2.6430   -2.8663 C   0  0  0  0  0  0  0  0  0  0  0  0
   15.9124   -3.7072   -3.0867 H   0  0  0  0  0  0  0  0  0  0  0  0
   16.4095   -1.7405   -3.8085 C   0  0  0  0  0  0  0  0  0  0  0  0
   16.8261   -2.1030   -4.7399 H   0  0  0  0  0  0  0  0  0  0  0  0
   16.3967   -0.3668   -3.5538 C   0  0  0  0  0  0  0  0  0  0  0  0
   16.7956    0.3289   -4.2879 H   0  0  0  0  0  0  0  0  0  0  0  0
   15.8599    0.1018   -2.3551 C   0  0  0  0  0  0  0  0  0  0  0  0
   15.8459    1.1664   -2.1442 H   0  0  0  0  0  0  0  0  0  0  0  0
   15.3411   -0.7980   -1.4151 C   0  0  0  0  0  0  0  0  0  0  0  0
   14.9244   -0.4198   -0.4875 H   0  0  0  0  0  0  0  0  0  0  0  0
   13.2487   -2.8986   -0.4395 C   0  0  0  0  0  0  0  0  0  0  0  0
   12.3870   -2.9793   -1.3117 O   0  0  0  0  0  0  0  0  0  0  0  0
   12.9722   -2.6075    0.8789 N   0  0  0  0  0  0  0  0  0  0  0  0
   11.6811   -2.2527    1.4690 C   0  0  0  0  0  0  0  0  0  0  0  0
   11.4876   -2.8649    2.3579 H   0  0  0  0  0  0  0  0  0  0  0  0
   11.6826   -1.1985    1.7662 H   0  0  0  0  0  0  0  0  0  0  0  0
   10.8616   -2.4095    0.7575 H   0  0  0  0  0  0  0  0  0  0  0  0
   14.1741   -2.5871    1.5415 C   0  0  0  0  0  0  0  0  0  0  0  0
   14.2737   -2.3768    2.8848 N   0  0  0  0  0  0  0  0  0  0  0  0
   13.4294   -2.0742    3.3715 H   0  0  0  0  0  0  0  0  0  0  0  0
   15.1802   -2.0849    3.2507 H   0  0  0  0  0  0  0  0  0  0  0  0
   15.1856   -2.8003    0.7688 N   0  0  0  0  0  4  0  0  0  0  0  0
   16.1405   -2.9495    1.1057 H   0  0  0  0  0  0  0  0  0  0  0  0
   14.1131   -5.5582   -1.1389 C   0  0  0  0  0  0  0  0  0  0  0  0
   13.0825   -5.2399   -1.2588 H   0  0  0  0  0  0  0  0  0  0  0  0
   12.0656   -7.6212   -1.7580 C   0  0  0  0  0  0  0  0  0  0  0  0
   11.6857   -6.6729   -1.3826 H   0  0  0  0  0  0  0  0  0  0  0  0
   11.1754   -8.5946   -2.2374 C   0  0  0  0  0  0  0  0  0  0  0  0
    9.8189   -8.4024   -2.3009 O   0  0  0  0  0  0  0  0  0  0  0  0
    9.3427   -7.1984   -1.6979 C   0  0  0  0  0  0  0  0  0  0  0  0
    9.7710   -6.3370   -2.2168 H   0  0  0  0  0  0  0  0  0  0  0  0
    9.6236   -7.1541   -0.6408 H   0  0  0  0  0  0  0  0  0  0  0  0
    8.2551   -7.1581   -1.7625 H   0  0  0  0  0  0  0  0  0  0  0  0
  1  2  1  0
  2  3  2  0
  3  4  1  0
  4  5  1  0
  4  6  2  0
  6  7  1  0
  7  8  2  0
  8  9  1  0
  8 10  1  0
 10 11  1  0
 10 12  2  0
 12 13  1  0
 12 14  1  0
 14 15  1  0
 15 16  1  0
 16 17  2  0
 17 18  1  0
 17 19  1  0
 19 20  1  0
 19 21  2  0
 21 22  1  0
 21 23  1  0
 23 24  1  0
 23 25  2  0
 25 26  1  0
 15 27  1  0
 27 28  2  0
 27 29  1  0
 29 30  1  0
 30 31  1  0
 30 32  1  0
 30 33  1  0
 29 34  1  0
 34 35  1  0
 35 36  1  0
 35 37  1  0
 34 38  2  0
 38 39  1  0
 14 40  2  0
 40 41  1  0
  6 42  1  0
 42 43  1  0
 42 44  2  0
 44 45  1  0
 45 46  1  0
 46 47  1  0
 46 48  1  0
 46 49  1  0
 44  2  1  0
 40  7  1  0
 38 15  1  0
 25 16  1  0
M  CHG  1  38   1
M  END
>  <score>  (447) 
4.98626

$$$$

     RDKit          3D

 42 45  0  0  0  0  0  0  0  0999 V2000
   10.5446   -9.0809   -2.6971 H   0  0  0  0  0  0  0  0  0  0  0  0
   11.5814   -9.0571   -2.3749 C   0  0  0  0  0  0  0  0  0  0  0  0
   12.1944   -7.8996   -1.9125 N   0  0  0  0  0  0  0  0  0  0  0  0
   13.4695   -8.1289   -1.6886 C   0  0  0  0  0  0  0  0  0  0  0  0
   14.4473   -7.0916   -1.3525 C   0  0  0  0  0  0  0  0  0  0  0  0
   15.7800   -7.4731   -1.1340 C   0  0  0  0  0  0  0  0  0  0  0  0
   16.0499   -8.5221   -1.1618 H   0  0  0  0  0  0  0  0  0  0  0  0
   16.7600   -6.5300   -0.8370 C   0  0  0  0  0  0  0  0  0  0  0  0
   17.7714   -6.8645   -0.6130 H   0  0  0  0  0  0  0  0  0  0  0  0
   16.4171   -5.1834   -0.7628 C   0  0  0  0  0  0  0  0  0  0  0  0
   17.1774   -4.4559   -0.4828 H   0  0  0  0  0  0  0  0  0  0  0  0
   15.0908   -4.7676   -0.9776 C   0  0  0  0  0  0  0  0  0  0  0  0
   14.7399   -3.3149   -0.7432 C   0  0  0  0  0  0  0  0  0  0  0  0
   15.3217   -2.3436   -1.7572 C   0  0  0  0  0  0  0  0  0  0  0  0
   15.8907   -2.7488   -2.9791 C   0  0  0  0  0  0  0  0  0  0  0  0
   15.9441   -3.8031   -3.2328 H   0  0  0  0  0  0  0  0  0  0  0  0
   16.3999   -1.7981   -3.8775 C   0  0  0  0  0  0  0  0  0  0  0  0
   16.8378   -2.1127   -4.8202 H   0  0  0  0  0  0  0  0  0  0  0  0
   16.3452   -0.4352   -3.5636 C   0  0  0  0  0  0  0  0  0  0  0  0
   16.7387    0.2996   -4.2611 H   0  0  0  0  0  0  0  0  0  0  0  0
   15.7823   -0.0226   -2.3531 C   0  0  0  0  0  0  0  0  0  0  0  0
   15.7413    1.0333   -2.0996 H   0  0  0  0  0  0  0  0  0  0  0  0
   15.2703   -0.9711   -1.4657 C   0  0  0  0  0  0  0  0  0  0  0  0
   14.8363   -0.6374   -0.5274 H   0  0  0  0  0  0  0  0  0  0  0  0
   13.2335   -3.0581   -0.5424 C   0  0  0  0  0  0  0  0  0  0  0  0
   12.3288   -3.2051   -1.3627 O   0  0  0  0  0  0  0  0  0  0  0  0
   13.0168   -2.6307    0.7503 N   0  0  0  0  0  0  0  0  0  0  0  0
   11.7321   -2.2708    1.3451 C   0  0  0  0  0  0  0  0  0  0  0  0
   10.9135   -2.4421    0.6369 H   0  0  0  0  0  0  0  0  0  0  0  0
   11.5390   -2.8749    2.2384 H   0  0  0  0  0  0  0  0  0  0  0  0
   11.7227   -1.2123    1.6266 H   0  0  0  0  0  0  0  0  0  0  0  0
   14.2427   -2.5765    1.3772 C   0  0  0  0  0  0  0  0  0  0  0  0
   14.4820   -2.1852    2.6586 N   0  0  0  0  0  0  0  0  0  0  0  0
   13.6961   -2.0943    3.2978 H   0  0  0  0  0  0  0  0  0  0  0  0
   15.4191   -2.3231    3.0340 H   0  0  0  0  0  0  0  0  0  0  0  0
   15.2050   -2.9602    0.6104 N   0  0  0  0  0  4  0  0  0  0  0  0
   16.1704   -3.0809    0.9221 H   0  0  0  0  0  0  0  0  0  0  0  0
   14.1075   -5.7323   -1.2751 C   0  0  0  0  0  0  0  0  0  0  0  0
   13.0673   -5.4321   -1.3923 H   0  0  0  0  0  0  0  0  0  0  0  0
   14.0073   -9.7826   -1.9860 S   0  0  0  0  0  0  0  0  0  0  0  0
   12.3851  -10.1592   -2.4601 C   0  0  0  0  0  0  0  0  0  0  0  0
   12.0757  -11.1280   -2.8267 H   0  0  0  0  0  0  0  0  0  0  0  0
  1  2  1  0
  2  3  1  0
  3  4  2  0
  4  5  1  0
  5  6  2  0
  6  7  1  0
  6  8  1  0
  8  9  1  0
  8 10  2  0
 10 11  1  0
 10 12  1  0
 12 13  1  0
 13 14  1  0
 14 15  2  0
 15 16  1  0
 15 17  1  0
 17 18  1  0
 17 19  2  0
 19 20  1  0
 19 21  1  0
 21 22  1  0
 21 23  2  0
 23 24  1  0
 13 25  1  0
 25 26  2  0
 25 27  1  0
 27 28  1  0
 28 29  1  0
 28 30  1  0
 28 31  1  0
 27 32  1  0
 32 33  1  0
 33 34  1  0
 33 35  1  0
 32 36  2  0
 36 37  1  0
 12 38  2  0
 38 39  1  0
  4 40  1  0
 40 41  1  0
 41 42  1  0
 41  2  2  0
 38  5  1  0
 36 13  1  0
 23 14  1  0
M  CHG  1  36   1
M  END
>  <score>  (448) 
4.98485

$$$$

     RDKit          3D

 43 45  0  0  0  0  0  0  0  0999 V2000
   16.0958   -8.4520   -1.6199 H   0  0  0  0  0  0  0  0  0  0  0  0
   15.8597   -7.4002   -1.4874 C   0  0  0  0  0  0  0  0  0  0  0  0
   16.7447   -6.5609   -0.8034 C   0  0  0  0  0  0  0  0  0  0  0  0
   17.6762   -6.9581   -0.4088 H   0  0  0  0  0  0  0  0  0  0  0  0
   16.4177   -5.2138   -0.6061 C   0  0  0  0  0  0  0  0  0  0  0  0
   17.0900   -4.5661   -0.0512 H   0  0  0  0  0  0  0  0  0  0  0  0
   15.2013   -4.6864   -1.0645 C   0  0  0  0  0  0  0  0  0  0  0  0
   14.8308   -3.2365   -0.7460 C   0  0  0  0  0  0  0  0  0  0  0  0
   15.3834   -2.2128   -1.7361 C   0  0  0  0  0  0  0  0  0  0  0  0
   15.9290   -2.6183   -2.9673 C   0  0  0  0  0  0  0  0  0  0  0  0
   15.9735   -3.6769   -3.2048 H   0  0  0  0  0  0  0  0  0  0  0  0
   16.4080   -1.6804   -3.8908 C   0  0  0  0  0  0  0  0  0  0  0  0
   16.8334   -1.9999   -4.8393 H   0  0  0  0  0  0  0  0  0  0  0  0
   16.3313   -0.3196   -3.5919 C   0  0  0  0  0  0  0  0  0  0  0  0
   16.7043    0.4264   -4.2865 H   0  0  0  0  0  0  0  0  0  0  0  0
   15.7755    0.1183   -2.3956 C   0  0  0  0  0  0  0  0  0  0  0  0
   15.7191    1.4786   -2.2390 O   0  0  0  0  0  0  0  0  0  0  0  0
   15.2500    2.0078   -0.9993 C   0  0  0  0  0  0  0  0  0  0  0  0
   14.3402    1.4825   -0.6867 H   0  0  0  0  0  0  0  0  0  0  0  0
   15.0235    3.0654   -1.1691 H   0  0  0  0  0  0  0  0  0  0  0  0
   16.3126    1.9470    0.0864 C   0  0  0  0  0  0  0  0  0  0  0  0
   16.5695    0.9098    0.3253 H   0  0  0  0  0  0  0  0  0  0  0  0
   15.9249    2.4188    0.9908 H   0  0  0  0  0  0  0  0  0  0  0  0
   17.4011    2.6332   -0.3525 F   0  0  0  0  0  0  0  0  0  0  0  0
   15.3031   -0.8259   -1.4683 C   0  0  0  0  0  0  0  0  0  0  0  0
   14.8753   -0.4546   -0.5428 H   0  0  0  0  0  0  0  0  0  0  0  0
   13.3095   -3.0404   -0.5879 C   0  0  0  0  0  0  0  0  0  0  0  0
   12.4554   -3.1358   -1.4689 O   0  0  0  0  0  0  0  0  0  0  0  0
   13.0324   -2.6809    0.7171 N   0  0  0  0  0  0  0  0  0  0  0  0
   11.7296   -2.3151    1.2756 C   0  0  0  0  0  0  0  0  0  0  0  0
   11.7188   -1.2560    1.5581 H   0  0  0  0  0  0  0  0  0  0  0  0
   11.5060   -2.9183    2.1641 H   0  0  0  0  0  0  0  0  0  0  0  0
   10.9276   -2.4788    0.5477 H   0  0  0  0  0  0  0  0  0  0  0  0
   14.2425   -2.6188    1.3784 C   0  0  0  0  0  0  0  0  0  0  0  0
   14.4165   -2.2791    2.6799 N   0  0  0  0  0  0  0  0  0  0  0  0
   15.3515   -2.3324    3.0833 H   0  0  0  0  0  0  0  0  0  0  0  0
   13.6039   -2.1279    3.2715 H   0  0  0  0  0  0  0  0  0  0  0  0
   15.2530   -2.9172    0.6315 N   0  0  0  0  0  4  0  0  0  0  0  0
   16.2201   -2.9933    0.9670 H   0  0  0  0  0  0  0  0  0  0  0  0
   14.3244   -5.5404   -1.7613 C   0  0  0  0  0  0  0  0  0  0  0  0
   13.3681   -5.1601   -2.1076 H   0  0  0  0  0  0  0  0  0  0  0  0
   14.6510   -6.8897   -1.9726 C   0  0  0  0  0  0  0  0  0  0  0  0
   13.9562   -7.5503   -2.4852 H   0  0  0  0  0  0  0  0  0  0  0  0
  1  2  1  0
  2  3  2  0
  3  4  1  0
  3  5  1  0
  5  6  1  0
  5  7  2  0
  7  8  1  0
  8  9  1  0
  9 10  2  0
 10 11  1  0
 10 12  1  0
 12 13  1  0
 12 14  2  0
 14 15  1  0
 14 16  1  0
 16 17  1  0
 17 18  1  0
 18 19  1  0
 18 20  1  0
 18 21  1  0
 21 22  1  0
 21 23  1  0
 21 24  1  0
 16 25  2  0
 25 26  1  0
  8 27  1  0
 27 28  2  0
 27 29  1  0
 29 30  1  0
 30 31  1  0
 30 32  1  0
 30 33  1  0
 29 34  1  0
 34 35  1  0
 35 36  1  0
 35 37  1  0
 34 38  2  0
 38 39  1  0
  7 40  1  0
 40 41  1  0
 40 42  2  0
 42 43  1  0
 42  2  1  0
 38  8  1  0
 25  9  1  0
M  CHG  1  38   1
M  END
>  <score>  (449) 
4.97271

$$$$

     RDKit          3D

 44 46  0  0  0  0  0  0  0  0999 V2000
   11.4399  -10.7103   -2.8875 H   0  0  0  0  0  0  0  0  0  0  0  0
   12.1363   -9.9593   -2.5180 C   0  0  0  0  0  0  0  0  0  0  0  0
   13.1835  -10.2581   -2.4554 H   0  0  0  0  0  0  0  0  0  0  0  0
   11.6911   -8.7191   -2.0768 C   0  0  0  0  0  0  0  0  0  0  0  0
   10.6303   -8.4790   -2.0906 H   0  0  0  0  0  0  0  0  0  0  0  0
   12.5408   -7.6576   -1.5394 C   0  0  0  0  0  0  0  0  0  0  0  0
   11.9952   -6.6968   -1.0192 O   0  0  0  0  0  0  0  0  0  0  0  0
   13.9161   -7.7592   -1.6107 N   0  0  0  0  0  0  0  0  0  0  0  0
   14.2913   -8.6314   -1.9576 H   0  0  0  0  0  0  0  0  0  0  0  0
   14.8236   -6.7874   -1.2100 C   0  0  0  0  0  0  0  0  0  0  0  0
   16.1634   -7.1453   -1.0646 C   0  0  0  0  0  0  0  0  0  0  0  0
   16.4488   -8.1817   -1.2056 H   0  0  0  0  0  0  0  0  0  0  0  0
   17.1229   -6.1785   -0.7377 C   0  0  0  0  0  0  0  0  0  0  0  0
   18.1679   -6.4497   -0.6101 H   0  0  0  0  0  0  0  0  0  0  0  0
   16.7315   -4.8464   -0.5610 C   0  0  0  0  0  0  0  0  0  0  0  0
   17.4699   -4.0975   -0.2906 H   0  0  0  0  0  0  0  0  0  0  0  0
   15.3873   -4.4691   -0.7009 C   0  0  0  0  0  0  0  0  0  0  0  0
   14.9668   -3.0214   -0.5107 C   0  0  0  0  0  0  0  0  0  0  0  0
   15.4970   -2.0918   -1.5920 C   0  0  0  0  0  0  0  0  0  0  0  0
   15.9850   -2.5904   -2.8126 C   0  0  0  0  0  0  0  0  0  0  0  0
   16.0278   -3.6642   -2.9744 H   0  0  0  0  0  0  0  0  0  0  0  0
   16.4152   -1.7172   -3.8189 C   0  0  0  0  0  0  0  0  0  0  0  0
   16.7927   -2.1084   -4.7581 H   0  0  0  0  0  0  0  0  0  0  0  0
   16.3572   -0.3349   -3.6174 C   0  0  0  0  0  0  0  0  0  0  0  0
   16.6819    0.3435   -4.4005 H   0  0  0  0  0  0  0  0  0  0  0  0
   15.8805    0.1735   -2.4060 C   0  0  0  0  0  0  0  0  0  0  0  0
   15.8412    1.2459   -2.2407 H   0  0  0  0  0  0  0  0  0  0  0  0
   15.4502   -0.7001   -1.4033 C   0  0  0  0  0  0  0  0  0  0  0  0
   15.0766   -0.2961   -0.4664 H   0  0  0  0  0  0  0  0  0  0  0  0
   13.4402   -2.8675   -0.3723 C   0  0  0  0  0  0  0  0  0  0  0  0
   12.5887   -3.0751   -1.2356 O   0  0  0  0  0  0  0  0  0  0  0  0
   13.1405   -2.4676    0.9124 N   0  0  0  0  0  0  0  0  0  0  0  0
   11.8173   -2.2154    1.4786 C   0  0  0  0  0  0  0  0  0  0  0  0
   11.6474   -2.8232    2.3761 H   0  0  0  0  0  0  0  0  0  0  0  0
   11.7277   -1.1588    1.7507 H   0  0  0  0  0  0  0  0  0  0  0  0
   11.0299   -2.4550    0.7554 H   0  0  0  0  0  0  0  0  0  0  0  0
   14.3351   -2.3307    1.5800 C   0  0  0  0  0  0  0  0  0  0  0  0
   14.4600   -2.0064    2.8923 N   0  0  0  0  0  0  0  0  0  0  0  0
   13.6199   -2.0237    3.4664 H   0  0  0  0  0  0  0  0  0  0  0  0
   15.3660   -2.1652    3.3315 H   0  0  0  0  0  0  0  0  0  0  0  0
   15.3605   -2.5810    0.8389 N   0  0  0  0  0  4  0  0  0  0  0  0
   16.3050   -2.6940    1.2110 H   0  0  0  0  0  0  0  0  0  0  0  0
   14.4404   -5.4604   -1.0085 C   0  0  0  0  0  0  0  0  0  0  0  0
   13.3947   -5.1980   -1.1061 H   0  0  0  0  0  0  0  0  0  0  0  0
  1  2  1  0
  2  3  1  0
  2  4  2  0
  4  5  1  0
  4  6  1  0
  6  7  2  0
  6  8  1  0
  8  9  1  0
  8 10  1  0
 10 11  2  0
 11 12  1  0
 11 13  1  0
 13 14  1  0
 13 15  2  0
 15 16  1  0
 15 17  1  0
 17 18  1  0
 18 19  1  0
 19 20  2  0
 20 21  1  0
 20 22  1  0
 22 23  1  0
 22 24  2  0
 24 25  1  0
 24 26  1  0
 26 27  1  0
 26 28  2  0
 28 29  1  0
 18 30  1  0
 30 31  2  0
 30 32  1  0
 32 33  1  0
 33 34  1  0
 33 35  1  0
 33 36  1  0
 32 37  1  0
 37 38  1  0
 38 39  1  0
 38 40  1  0
 37 41  2  0
 41 42  1  0
 17 43  2  0
 43 44  1  0
 43 10  1  0
 41 18  1  0
 28 19  1  0
M  CHG  1  41   1
M  END
>  <score>  (450) 
4.97132

$$$$

     RDKit          3D

 44 47  0  0  0  0  0  0  0  0999 V2000
   10.3099   -8.8752   -1.4347 H   0  0  0  0  0  0  0  0  0  0  0  0
   11.3280   -8.8017   -1.8170 C   0  0  0  0  0  0  0  0  0  0  0  0
   11.7739   -9.7620   -2.6497 N   0  0  0  0  0  0  0  0  0  0  0  0
   13.0471   -9.7817   -3.0732 N   0  0  0  0  0  0  0  0  0  0  0  0
   13.9009   -8.8257   -2.6647 C   0  0  0  0  0  0  0  0  0  0  0  0
   14.9497   -8.8554   -2.9262 H   0  0  0  0  0  0  0  0  0  0  0  0
   13.4985   -7.7581   -1.8630 C   0  0  0  0  0  0  0  0  0  0  0  0
   14.5032   -6.7774   -1.4263 C   0  0  0  0  0  0  0  0  0  0  0  0
   15.8069   -7.2221   -1.1606 C   0  0  0  0  0  0  0  0  0  0  0  0
   16.0411   -8.2747   -1.2812 H   0  0  0  0  0  0  0  0  0  0  0  0
   16.7888   -6.3360   -0.7175 C   0  0  0  0  0  0  0  0  0  0  0  0
   17.7820   -6.7007   -0.4727 H   0  0  0  0  0  0  0  0  0  0  0  0
   16.4766   -4.9827   -0.5712 C   0  0  0  0  0  0  0  0  0  0  0  0
   17.2355   -4.2849   -0.2294 H   0  0  0  0  0  0  0  0  0  0  0  0
   15.1853   -4.4978   -0.8322 C   0  0  0  0  0  0  0  0  0  0  0  0
   14.8775   -3.0145   -0.5840 C   0  0  0  0  0  0  0  0  0  0  0  0
   15.4498   -2.0660   -1.6399 C   0  0  0  0  0  0  0  0  0  0  0  0
   15.9559   -2.5532   -2.8568 C   0  0  0  0  0  0  0  0  0  0  0  0
   15.9790   -3.6234   -3.0339 H   0  0  0  0  0  0  0  0  0  0  0  0
   16.4182   -1.6801   -3.8516 C   0  0  0  0  0  0  0  0  0  0  0  0
   16.8045   -2.0665   -4.7890 H   0  0  0  0  0  0  0  0  0  0  0  0
   16.3773   -0.2972   -3.6497 C   0  0  0  0  0  0  0  0  0  0  0  0
   16.7382    0.3799   -4.4203 H   0  0  0  0  0  0  0  0  0  0  0  0
   15.8680    0.2115   -2.4513 C   0  0  0  0  0  0  0  0  0  0  0  0
   15.8248    1.2880   -2.2945 H   0  0  0  0  0  0  0  0  0  0  0  0
   15.4077   -0.6670   -1.4569 C   0  0  0  0  0  0  0  0  0  0  0  0
   15.0013   -0.2540   -0.5376 H   0  0  0  0  0  0  0  0  0  0  0  0
   13.3726   -2.7508   -0.4212 C   0  0  0  0  0  0  0  0  0  0  0  0
   12.5046   -2.9197   -1.2761 O   0  0  0  0  0  0  0  0  0  0  0  0
   13.0981   -2.3821    0.8810 N   0  0  0  0  0  0  0  0  0  0  0  0
   11.7549   -2.2073    1.4380 C   0  0  0  0  0  0  0  0  0  0  0  0
   11.5882   -1.1702    1.7502 H   0  0  0  0  0  0  0  0  0  0  0  0
   10.9955   -2.4562    0.6852 H   0  0  0  0  0  0  0  0  0  0  0  0
   11.6021   -2.8641    2.3023 H   0  0  0  0  0  0  0  0  0  0  0  0
   14.2951   -2.4250    1.5663 C   0  0  0  0  0  0  0  0  0  0  0  0
   14.4460   -2.2966    2.9191 N   0  0  0  0  0  0  0  0  0  0  0  0
   15.3855   -2.1209    3.2716 H   0  0  0  0  0  0  0  0  0  0  0  0
   13.6429   -1.9951    3.4685 H   0  0  0  0  0  0  0  0  0  0  0  0
   15.3041   -2.6567    0.7904 N   0  0  0  0  0  4  0  0  0  0  0  0
   16.2496   -2.8187    1.1410 H   0  0  0  0  0  0  0  0  0  0  0  0
   14.1977   -5.4149   -1.2700 C   0  0  0  0  0  0  0  0  0  0  0  0
   13.1840   -5.0898   -1.4939 H   0  0  0  0  0  0  0  0  0  0  0  0
   12.1616   -7.7396   -1.4466 C   0  0  0  0  0  0  0  0  0  0  0  0
   11.7933   -6.9656   -0.7855 H   0  0  0  0  0  0  0  0  0  0  0  0
  1  2  1  0
  2  3  2  0
  3  4  1  0
  4  5  2  0
  5  6  1  0
  5  7  1  0
  7  8  1  0
  8  9  2  0
  9 10  1  0
  9 11  1  0
 11 12  1  0
 11 13  2  0
 13 14  1  0
 13 15  1  0
 15 16  1  0
 16 17  1  0
 17 18  2  0
 18 19  1  0
 18 20  1  0
 20 21  1  0
 20 22  2  0
 22 23  1  0
 22 24  1  0
 24 25  1  0
 24 26  2  0
 26 27  1  0
 16 28  1  0
 28 29  2  0
 28 30  1  0
 30 31  1  0
 31 32  1  0
 31 33  1  0
 31 34  1  0
 30 35  1  0
 35 36  1  0
 36 37  1  0
 36 38  1  0
 35 39  2  0
 39 40  1  0
 15 41  2  0
 41 42  1  0
  7 43  2  0
 43 44  1  0
 43  2  1  0
 41  8  1  0
 39 16  1  0
 26 17  1  0
M  CHG  1  39   1
M  END
>  <score>  (451) 
4.97041

$$$$

     RDKit          3D

 42 44  0  0  0  0  0  0  0  0999 V2000
   16.0818   -8.3476   -1.6721 H   0  0  0  0  0  0  0  0  0  0  0  0
   15.8497   -7.3001   -1.4978 C   0  0  0  0  0  0  0  0  0  0  0  0
   16.7575   -6.4872   -0.8130 C   0  0  0  0  0  0  0  0  0  0  0  0
   17.6960   -6.8969   -0.4540 H   0  0  0  0  0  0  0  0  0  0  0  0
   16.4554   -5.1425   -0.5692 C   0  0  0  0  0  0  0  0  0  0  0  0
   17.1717   -4.5199   -0.0408 H   0  0  0  0  0  0  0  0  0  0  0  0
   15.2365   -4.5887   -0.9951 C   0  0  0  0  0  0  0  0  0  0  0  0
   14.8843   -3.1303   -0.6873 C   0  0  0  0  0  0  0  0  0  0  0  0
   15.4517   -2.1389   -1.7199 C   0  0  0  0  0  0  0  0  0  0  0  0
   15.9033   -2.6120   -2.9600 C   0  0  0  0  0  0  0  0  0  0  0  0
   15.8399   -3.6733   -3.1716 H   0  0  0  0  0  0  0  0  0  0  0  0
   16.4452   -1.7515   -3.9154 C   0  0  0  0  0  0  0  0  0  0  0  0
   16.7822   -2.1488   -4.8641 H   0  0  0  0  0  0  0  0  0  0  0  0
   16.5464   -0.3850   -3.6525 C   0  0  0  0  0  0  0  0  0  0  0  0
   16.9834    0.2831   -4.3887 H   0  0  0  0  0  0  0  0  0  0  0  0
   16.0644    0.1429   -2.4554 C   0  0  0  0  0  0  0  0  0  0  0  0
   16.1553    1.5004   -2.3132 O   0  0  0  0  0  0  0  0  0  0  0  0
   15.2184    2.1172   -1.0976 S   0  0  0  0  0  0  0  0  0  0  0  0
   15.3202    3.5630   -0.9054 O   0  0  0  0  0  0  0  0  0  0  0  0
   13.8425    1.6139   -1.0882 O   0  0  0  0  0  0  0  0  0  0  0  0
   15.9330    1.4733    0.2282 N   0  0  0  0  0  0  0  0  0  0  0  0
   15.8896    2.2196    0.9027 H   0  0  0  0  0  0  0  0  0  0  0  0
   15.3016    0.7308    0.4804 H   0  0  0  0  0  0  0  0  0  0  0  0
   15.5122   -0.7377   -1.4962 C   0  0  0  0  0  0  0  0  0  0  0  0
   15.1333   -0.3171   -0.5733 H   0  0  0  0  0  0  0  0  0  0  0  0
   13.3609   -2.9510   -0.5182 C   0  0  0  0  0  0  0  0  0  0  0  0
   12.4873   -3.1847   -1.3479 O   0  0  0  0  0  0  0  0  0  0  0  0
   13.0780   -2.5880    0.7878 N   0  0  0  0  0  0  0  0  0  0  0  0
   11.7527   -2.2746    1.3337 C   0  0  0  0  0  0  0  0  0  0  0  0
   10.9651   -2.4701    0.5952 H   0  0  0  0  0  0  0  0  0  0  0  0
   11.5335   -2.8827    2.2214 H   0  0  0  0  0  0  0  0  0  0  0  0
   11.6962   -1.2149    1.6106 H   0  0  0  0  0  0  0  0  0  0  0  0
   14.2794   -2.5121    1.4569 C   0  0  0  0  0  0  0  0  0  0  0  0
   14.4540   -2.1825    2.7704 N   0  0  0  0  0  0  0  0  0  0  0  0
   13.6374   -2.1213    3.3814 H   0  0  0  0  0  0  0  0  0  0  0  0
   15.3858   -2.2973    3.1688 H   0  0  0  0  0  0  0  0  0  0  0  0
   15.2900   -2.7967    0.6982 N   0  0  0  0  0  4  0  0  0  0  0  0
   16.2376   -2.9167    1.0595 H   0  0  0  0  0  0  0  0  0  0  0  0
   14.3498   -5.4084   -1.7209 C   0  0  0  0  0  0  0  0  0  0  0  0
   13.4098   -5.0098   -2.0906 H   0  0  0  0  0  0  0  0  0  0  0  0
   14.6506   -6.7542   -1.9636 C   0  0  0  0  0  0  0  0  0  0  0  0
   13.9488   -7.3800   -2.5058 H   0  0  0  0  0  0  0  0  0  0  0  0
  1  2  1  0
  2  3  2  0
  3  4  1  0
  3  5  1  0
  5  6  1  0
  5  7  2  0
  7  8  1  0
  8  9  1  0
  9 10  2  0
 10 11  1  0
 10 12  1  0
 12 13  1  0
 12 14  2  0
 14 15  1  0
 14 16  1  0
 16 17  1  0
 17 18  1  0
 18 19  2  0
 18 20  2  0
 18 21  1  0
 21 22  1  0
 21 23  1  0
 16 24  2  0
 24 25  1  0
  8 26  1  0
 26 27  2  0
 26 28  1  0
 28 29  1  0
 29 30  1  0
 29 31  1  0
 29 32  1  0
 28 33  1  0
 33 34  1  0
 34 35  1  0
 34 36  1  0
 33 37  2  0
 37 38  1  0
  7 39  1  0
 39 40  1  0
 39 41  2  0
 41 42  1  0
 41  2  1  0
 37  8  1  0
 24  9  1  0
M  CHG  1  37   1
M  END
>  <score>  (452) 
4.96933

$$$$

     RDKit          3D

 46 48  0  0  0  0  0  0  0  0999 V2000
   12.2140   -5.7694    2.3641 H   0  0  0  0  0  0  0  0  0  0  0  0
   11.5801   -5.8726    1.6325 O   0  0  0  0  0  0  0  0  0  0  0  0
   12.2342   -6.5935    0.6732 C   0  0  0  0  0  0  0  0  0  0  0  0
   13.3939   -6.9629    0.8323 O   0  0  0  0  0  0  0  0  0  0  0  0
   11.5045   -6.9742   -0.6104 C   0  0  0  0  0  0  0  0  0  0  0  0
   10.3086   -6.7374   -0.7982 O   0  0  0  0  0  0  0  0  0  0  0  0
   12.0901   -7.7917   -1.6720 C   0  0  0  0  0  0  0  0  0  0  0  0
   11.4217   -8.4302   -2.2368 H   0  0  0  0  0  0  0  0  0  0  0  0
   13.4181   -7.8222   -1.9867 C   0  0  0  0  0  0  0  0  0  0  0  0
   13.7198   -8.7389   -2.9345 O   0  0  0  0  0  0  0  0  0  0  0  0
   12.8867   -9.1392   -3.2246 H   0  0  0  0  0  0  0  0  0  0  0  0
   14.4511   -6.9231   -1.4589 C   0  0  0  0  0  0  0  0  0  0  0  0
   15.7717   -7.3717   -1.3049 C   0  0  0  0  0  0  0  0  0  0  0  0
   16.0056   -8.4129   -1.5099 H   0  0  0  0  0  0  0  0  0  0  0  0
   16.7810   -6.4879   -0.9046 C   0  0  0  0  0  0  0  0  0  0  0  0
   17.8082   -6.8356   -0.8311 H   0  0  0  0  0  0  0  0  0  0  0  0
   16.4728   -5.1513   -0.6245 C   0  0  0  0  0  0  0  0  0  0  0  0
   17.2594   -4.4723   -0.2994 H   0  0  0  0  0  0  0  0  0  0  0  0
   15.1553   -4.6842   -0.7767 C   0  0  0  0  0  0  0  0  0  0  0  0
   14.7945   -3.2272   -0.5386 C   0  0  0  0  0  0  0  0  0  0  0  0
   15.3756   -2.2874   -1.5880 C   0  0  0  0  0  0  0  0  0  0  0  0
   15.8896   -2.7508   -2.8153 C   0  0  0  0  0  0  0  0  0  0  0  0
   15.9027   -3.8150   -3.0339 H   0  0  0  0  0  0  0  0  0  0  0  0
   16.3847   -1.8484   -3.7679 C   0  0  0  0  0  0  0  0  0  0  0  0
   16.7854   -2.2095   -4.7097 H   0  0  0  0  0  0  0  0  0  0  0  0
   16.3667   -0.4736   -3.5113 C   0  0  0  0  0  0  0  0  0  0  0  0
   16.7644    0.2258   -4.2417 H   0  0  0  0  0  0  0  0  0  0  0  0
   15.8357   -0.0001   -2.3084 C   0  0  0  0  0  0  0  0  0  0  0  0
   15.8043    1.0661   -2.1023 H   0  0  0  0  0  0  0  0  0  0  0  0
   15.3431   -0.9022   -1.3605 C   0  0  0  0  0  0  0  0  0  0  0  0
   14.9261   -0.5247   -0.4314 H   0  0  0  0  0  0  0  0  0  0  0  0
   13.2711   -3.0096   -0.3975 C   0  0  0  0  0  0  0  0  0  0  0  0
   12.4109   -3.1852   -1.2572 O   0  0  0  0  0  0  0  0  0  0  0  0
   12.9723   -2.6666    0.9044 N   0  0  0  0  0  0  0  0  0  0  0  0
   11.6640   -2.3078    1.4456 C   0  0  0  0  0  0  0  0  0  0  0  0
   11.6644   -1.2551    1.7453 H   0  0  0  0  0  0  0  0  0  0  0  0
   10.8655   -2.4600    0.7038 H   0  0  0  0  0  0  0  0  0  0  0  0
   11.4316   -2.9070    2.3334 H   0  0  0  0  0  0  0  0  0  0  0  0
   14.1714   -2.6056    1.5816 C   0  0  0  0  0  0  0  0  0  0  0  0
   14.2870   -2.3693    2.9174 N   0  0  0  0  0  0  0  0  0  0  0  0
   13.4266   -2.1124    3.3974 H   0  0  0  0  0  0  0  0  0  0  0  0
   15.1804   -2.0175    3.2681 H   0  0  0  0  0  0  0  0  0  0  0  0
   15.1885   -2.8471    0.8281 N   0  0  0  0  0  4  0  0  0  0  0  0
   16.1361   -2.9605    1.1907 H   0  0  0  0  0  0  0  0  0  0  0  0
   14.1583   -5.5801   -1.1875 C   0  0  0  0  0  0  0  0  0  0  0  0
   13.1414   -5.2135   -1.3032 H   0  0  0  0  0  0  0  0  0  0  0  0
  1  2  1  0
  2  3  1  0
  3  4  2  0
  3  5  1  0
  5  6  2  0
  5  7  1  0
  7  8  1  0
  7  9  2  3
  9 10  1  0
 10 11  1  0
  9 12  1  0
 12 13  2  0
 13 14  1  0
 13 15  1  0
 15 16  1  0
 15 17  2  0
 17 18  1  0
 17 19  1  0
 19 20  1  0
 20 21  1  0
 21 22  2  0
 22 23  1  0
 22 24  1  0
 24 25  1  0
 24 26  2  0
 26 27  1  0
 26 28  1  0
 28 29  1  0
 28 30  2  0
 30 31  1  0
 20 32  1  0
 32 33  2  0
 32 34  1  0
 34 35  1  0
 35 36  1  0
 35 37  1  0
 35 38  1  0
 34 39  1  0
 39 40  1  0
 40 41  1  0
 40 42  1  0
 39 43  2  0
 43 44  1  0
 19 45  2  0
 45 46  1  0
 45 12  1  0
 43 20  1  0
 30 21  1  0
M  CHG  1  43   1
M  END
>  <score>  (453) 
4.9644

$$$$

     RDKit          3D

 43 46  0  0  0  0  0  0  0  0999 V2000
   11.5220   -7.0319   -1.3118 H   0  0  0  0  0  0  0  0  0  0  0  0
   12.0663   -7.8497   -1.7636 C   0  0  0  0  0  0  0  0  0  0  0  0
   11.4773   -8.9151   -2.2603 N   0  0  0  0  0  0  0  0  0  0  0  0
   12.5032   -9.7157   -2.6612 N   0  0  0  0  0  0  0  0  0  0  0  0
   12.3624  -10.6288   -3.0937 H   0  0  0  0  0  0  0  0  0  0  0  0
   13.7497   -9.1628   -2.4062 C   0  0  0  0  0  0  0  0  0  0  0  0
   14.7259   -9.5856   -2.5907 H   0  0  0  0  0  0  0  0  0  0  0  0
   13.5143   -7.9453   -1.8550 C   0  0  0  0  0  0  0  0  0  0  0  0
   14.5364   -6.9788   -1.4314 C   0  0  0  0  0  0  0  0  0  0  0  0
   15.8472   -7.3982   -1.1666 C   0  0  0  0  0  0  0  0  0  0  0  0
   16.0943   -8.4508   -1.2568 H   0  0  0  0  0  0  0  0  0  0  0  0
   16.8321   -6.4768   -0.7797 C   0  0  0  0  0  0  0  0  0  0  0  0
   17.8586   -6.7927   -0.6021 H   0  0  0  0  0  0  0  0  0  0  0  0
   16.5049   -5.1294   -0.6325 C   0  0  0  0  0  0  0  0  0  0  0  0
   17.2607   -4.4131   -0.3083 H   0  0  0  0  0  0  0  0  0  0  0  0
   15.2010   -4.6809   -0.8802 C   0  0  0  0  0  0  0  0  0  0  0  0
   14.8528   -3.2151   -0.6741 C   0  0  0  0  0  0  0  0  0  0  0  0
   15.4023   -2.2428   -1.7185 C   0  0  0  0  0  0  0  0  0  0  0  0
   15.9335   -2.6697   -2.9493 C   0  0  0  0  0  0  0  0  0  0  0  0
   15.9757   -3.7311   -3.1787 H   0  0  0  0  0  0  0  0  0  0  0  0
   16.4079   -1.7344   -3.8830 C   0  0  0  0  0  0  0  0  0  0  0  0
   16.8215   -2.0654   -4.8294 H   0  0  0  0  0  0  0  0  0  0  0  0
   16.3522   -0.3644   -3.6038 C   0  0  0  0  0  0  0  0  0  0  0  0
   16.7288    0.3562   -4.3244 H   0  0  0  0  0  0  0  0  0  0  0  0
   15.8088    0.0739   -2.3946 C   0  0  0  0  0  0  0  0  0  0  0  0
   15.7552    1.1364   -2.1723 H   0  0  0  0  0  0  0  0  0  0  0  0
   15.3336   -0.8586   -1.4668 C   0  0  0  0  0  0  0  0  0  0  0  0
   14.9070   -0.5039   -0.5325 H   0  0  0  0  0  0  0  0  0  0  0  0
   13.3391   -3.0113   -0.5072 C   0  0  0  0  0  0  0  0  0  0  0  0
   12.4651   -3.2082   -1.3515 O   0  0  0  0  0  0  0  0  0  0  0  0
   13.0761   -2.6017    0.7809 N   0  0  0  0  0  0  0  0  0  0  0  0
   11.7620   -2.2825    1.3329 C   0  0  0  0  0  0  0  0  0  0  0  0
   11.7156   -1.2253    1.6137 H   0  0  0  0  0  0  0  0  0  0  0  0
   10.9752   -2.4754    0.5942 H   0  0  0  0  0  0  0  0  0  0  0  0
   11.5535   -2.8934    2.2179 H   0  0  0  0  0  0  0  0  0  0  0  0
   14.2835   -2.5251    1.4405 C   0  0  0  0  0  0  0  0  0  0  0  0
   14.4669   -2.1955    2.7475 N   0  0  0  0  0  0  0  0  0  0  0  0
   13.6566   -2.0989    3.3569 H   0  0  0  0  0  0  0  0  0  0  0  0
   15.4030   -2.2593    3.1442 H   0  0  0  0  0  0  0  0  0  0  0  0
   15.2853   -2.8276    0.6832 N   0  0  0  0  0  4  0  0  0  0  0  0
   16.2408   -2.9409    1.0271 H   0  0  0  0  0  0  0  0  0  0  0  0
   14.2265   -5.6220   -1.2789 C   0  0  0  0  0  0  0  0  0  0  0  0
   13.2116   -5.3056   -1.4851 H   0  0  0  0  0  0  0  0  0  0  0  0
  1  2  1  0
  2  3  2  0
  3  4  1  0
  4  5  1  0
  4  6  1  0
  6  7  1  0
  6  8  2  0
  8  9  1  0
  9 10  2  0
 10 11  1  0
 10 12  1  0
 12 13  1  0
 12 14  2  0
 14 15  1  0
 14 16  1  0
 16 17  1  0
 17 18  1  0
 18 19  2  0
 19 20  1  0
 19 21  1  0
 21 22  1  0
 21 23  2  0
 23 24  1  0
 23 25  1  0
 25 26  1  0
 25 27  2  0
 27 28  1  0
 17 29  1  0
 29 30  2  0
 29 31  1  0
 31 32  1  0
 32 33  1  0
 32 34  1  0
 32 35  1  0
 31 36  1  0
 36 37  1  0
 37 38  1  0
 37 39  1  0
 36 40  2  0
 40 41  1  0
 16 42  2  0
 42 43  1  0
  8  2  1  0
 42  9  1  0
 40 17  1  0
 27 18  1  0
M  CHG  1  40   1
M  END
>  <score>  (454) 
4.96122

$$$$

     RDKit          3D

 46 48  0  0  0  0  0  0  0  0999 V2000
    8.0844   -6.8509   -2.1672 H   0  0  0  0  0  0  0  0  0  0  0  0
    9.0553   -6.8532   -2.1426 O   0  0  0  0  0  0  0  0  0  0  0  0
    9.4136   -8.1682   -2.2317 C   0  0  0  0  0  0  0  0  0  0  0  0
    8.5837   -9.0616   -2.3279 O   0  0  0  0  0  0  0  0  0  0  0  0
   10.8861   -8.5368   -2.2502 C   0  0  0  0  0  0  0  0  0  0  0  0
   11.3383   -9.7848   -2.6129 O   0  0  0  0  0  0  0  0  0  0  0  0
   12.2994   -9.7364   -2.7914 H   0  0  0  0  0  0  0  0  0  0  0  0
   11.9160   -7.6489   -1.9689 C   0  0  0  0  0  0  0  0  0  0  0  0
   11.6739   -6.6264   -1.7212 H   0  0  0  0  0  0  0  0  0  0  0  0
   13.3479   -8.0177   -1.9700 C   0  0  0  0  0  0  0  0  0  0  0  0
   13.6569   -9.1518   -2.3330 O   0  0  0  0  0  0  0  0  0  0  0  0
   14.3938   -7.0544   -1.5164 C   0  0  0  0  0  0  0  0  0  0  0  0
   15.7170   -7.4819   -1.2853 C   0  0  0  0  0  0  0  0  0  0  0  0
   15.9899   -8.5266   -1.4184 H   0  0  0  0  0  0  0  0  0  0  0  0
   16.7053   -6.5752   -0.8803 C   0  0  0  0  0  0  0  0  0  0  0  0
   17.7227   -6.9181   -0.7195 H   0  0  0  0  0  0  0  0  0  0  0  0
   16.4007   -5.2260   -0.6888 C   0  0  0  0  0  0  0  0  0  0  0  0
   17.1822   -4.5307   -0.3862 H   0  0  0  0  0  0  0  0  0  0  0  0
   15.0932   -4.7655   -0.8791 C   0  0  0  0  0  0  0  0  0  0  0  0
   14.7720   -3.2932   -0.6332 C   0  0  0  0  0  0  0  0  0  0  0  0
   15.3733   -2.3288   -1.6512 C   0  0  0  0  0  0  0  0  0  0  0  0
   15.9070   -2.7584   -2.8797 C   0  0  0  0  0  0  0  0  0  0  0  0
   15.9347   -3.8180   -3.1177 H   0  0  0  0  0  0  0  0  0  0  0  0
   16.3968   -1.8262   -3.8076 C   0  0  0  0  0  0  0  0  0  0  0  0
   16.8106   -2.1600   -4.7542 H   0  0  0  0  0  0  0  0  0  0  0  0
   16.3555   -0.4560   -3.5208 C   0  0  0  0  0  0  0  0  0  0  0  0
   16.7491    0.2660   -4.2309 H   0  0  0  0  0  0  0  0  0  0  0  0
   15.8133   -0.0138   -2.3108 C   0  0  0  0  0  0  0  0  0  0  0  0
   15.7667    1.0478   -2.0773 H   0  0  0  0  0  0  0  0  0  0  0  0
   15.3270   -0.9465   -1.3903 C   0  0  0  0  0  0  0  0  0  0  0  0
   14.8998   -0.5963   -0.4550 H   0  0  0  0  0  0  0  0  0  0  0  0
   13.2638   -3.0229   -0.5139 C   0  0  0  0  0  0  0  0  0  0  0  0
   12.4078   -3.2816   -1.3596 O   0  0  0  0  0  0  0  0  0  0  0  0
   12.9838   -2.5067    0.7347 N   0  0  0  0  0  0  0  0  0  0  0  0
   11.6463   -2.2124    1.2548 C   0  0  0  0  0  0  0  0  0  0  0  0
   11.5820   -1.1713    1.5858 H   0  0  0  0  0  0  0  0  0  0  0  0
   11.3996   -2.8645    2.1014 H   0  0  0  0  0  0  0  0  0  0  0  0
   10.8846   -2.3629    0.4781 H   0  0  0  0  0  0  0  0  0  0  0  0
   14.1803   -2.4621    1.4308 C   0  0  0  0  0  0  0  0  0  0  0  0
   14.3637   -2.0456    2.7184 N   0  0  0  0  0  0  0  0  0  0  0  0
   13.5493   -2.0584    3.3312 H   0  0  0  0  0  0  0  0  0  0  0  0
   15.2860   -2.2061    3.1232 H   0  0  0  0  0  0  0  0  0  0  0  0
   15.1743   -2.9103    0.7347 N   0  0  0  0  0  4  0  0  0  0  0  0
   16.1210   -3.0461    1.0989 H   0  0  0  0  0  0  0  0  0  0  0  0
   14.1055   -5.6883   -1.2950 C   0  0  0  0  0  0  0  0  0  0  0  0
   13.0942   -5.3282   -1.4521 H   0  0  0  0  0  0  0  0  0  0  0  0
  1  2  1  0
  2  3  1  0
  3  4  2  0
  3  5  1  0
  5  6  1  0
  6  7  1  0
  5  8  2  3
  8  9  1  0
  8 10  1  0
 10 11  2  0
 10 12  1  0
 12 13  2  0
 13 14  1  0
 13 15  1  0
 15 16  1  0
 15 17  2  0
 17 18  1  0
 17 19  1  0
 19 20  1  0
 20 21  1  0
 21 22  2  0
 22 23  1  0
 22 24  1  0
 24 25  1  0
 24 26  2  0
 26 27  1  0
 26 28  1  0
 28 29  1  0
 28 30  2  0
 30 31  1  0
 20 32  1  0
 32 33  2  0
 32 34  1  0
 34 35  1  0
 35 36  1  0
 35 37  1  0
 35 38  1  0
 34 39  1  0
 39 40  1  0
 40 41  1  0
 40 42  1  0
 39 43  2  0
 43 44  1  0
 19 45  2  0
 45 46  1  0
 45 12  1  0
 43 20  1  0
 30 21  1  0
M  CHG  1  43   1
M  END
>  <score>  (455) 
4.94139

$$$$

     RDKit          3D

 47 50  0  0  0  0  0  0  0  0999 V2000
   13.1270  -10.8691   -3.4435 H   0  0  0  0  0  0  0  0  0  0  0  0
   12.8276   -9.9290   -2.9782 C   0  0  0  0  0  0  0  0  0  0  0  0
   11.5356   -9.6407   -2.8298 N   0  0  0  0  0  0  0  0  0  0  0  0
   11.1546   -8.4714   -2.2673 C   0  0  0  0  0  0  0  0  0  0  0  0
    9.6359   -8.1889   -2.1015 C   0  0  0  0  0  0  0  0  0  0  0  0
    8.9019   -8.7360   -3.1182 F   0  0  0  0  0  0  0  0  0  0  0  0
    9.1804   -8.7112   -0.9237 F   0  0  0  0  0  0  0  0  0  0  0  0
    9.3651   -6.8514   -2.1123 F   0  0  0  0  0  0  0  0  0  0  0  0
   12.0811   -7.5709   -1.8546 N   0  0  0  0  0  0  0  0  0  0  0  0
   13.3884   -7.8406   -1.9681 C   0  0  0  0  0  0  0  0  0  0  0  0
   14.4265   -6.8945   -1.5050 C   0  0  0  0  0  0  0  0  0  0  0  0
   15.7306   -7.3516   -1.2288 C   0  0  0  0  0  0  0  0  0  0  0  0
   15.9810   -8.4024   -1.3453 H   0  0  0  0  0  0  0  0  0  0  0  0
   16.7224   -6.4777   -0.7812 C   0  0  0  0  0  0  0  0  0  0  0  0
   17.7232   -6.8507   -0.5786 H   0  0  0  0  0  0  0  0  0  0  0  0
   16.4270   -5.1238   -0.6071 C   0  0  0  0  0  0  0  0  0  0  0  0
   17.2077   -4.4469   -0.2703 H   0  0  0  0  0  0  0  0  0  0  0  0
   15.1336   -4.6346   -0.8503 C   0  0  0  0  0  0  0  0  0  0  0  0
   14.8033   -3.1642   -0.6099 C   0  0  0  0  0  0  0  0  0  0  0  0
   15.4133   -2.2107   -1.6314 C   0  0  0  0  0  0  0  0  0  0  0  0
   15.9378   -2.6644   -2.8557 C   0  0  0  0  0  0  0  0  0  0  0  0
   15.9679   -3.7297   -3.0660 H   0  0  0  0  0  0  0  0  0  0  0  0
   16.4041   -1.7544   -3.8140 C   0  0  0  0  0  0  0  0  0  0  0  0
   16.8064   -2.1115   -4.7569 H   0  0  0  0  0  0  0  0  0  0  0  0
   16.3468   -0.3794   -3.5619 C   0  0  0  0  0  0  0  0  0  0  0  0
   16.7054    0.3268   -4.3051 H   0  0  0  0  0  0  0  0  0  0  0  0
   15.8285    0.0848   -2.3491 C   0  0  0  0  0  0  0  0  0  0  0  0
   15.7785    1.1502   -2.1438 H   0  0  0  0  0  0  0  0  0  0  0  0
   15.3643   -0.8251   -1.3949 C   0  0  0  0  0  0  0  0  0  0  0  0
   14.9457   -0.4558   -0.4614 H   0  0  0  0  0  0  0  0  0  0  0  0
   13.2834   -2.8985   -0.5139 C   0  0  0  0  0  0  0  0  0  0  0  0
   12.4370   -3.1066   -1.3827 O   0  0  0  0  0  0  0  0  0  0  0  0
   12.9663   -2.3931    0.7323 N   0  0  0  0  0  0  0  0  0  0  0  0
   11.6017   -2.2114    1.2511 C   0  0  0  0  0  0  0  0  0  0  0  0
   10.8639   -2.4058    0.4576 H   0  0  0  0  0  0  0  0  0  0  0  0
   11.3996   -2.9078    2.0762 H   0  0  0  0  0  0  0  0  0  0  0  0
   11.4262   -1.1887    1.6098 H   0  0  0  0  0  0  0  0  0  0  0  0
   14.1513   -2.3966    1.4529 C   0  0  0  0  0  0  0  0  0  0  0  0
   14.3154   -2.0353    2.7504 N   0  0  0  0  0  0  0  0  0  0  0  0
   15.2183   -2.2210    3.1841 H   0  0  0  0  0  0  0  0  0  0  0  0
   13.4826   -1.9048    3.3228 H   0  0  0  0  0  0  0  0  0  0  0  0
   15.1745   -2.7942    0.7677 N   0  0  0  0  0  4  0  0  0  0  0  0
   16.1345   -2.8233    1.1239 H   0  0  0  0  0  0  0  0  0  0  0  0
   14.1439   -5.5286   -1.3043 C   0  0  0  0  0  0  0  0  0  0  0  0
   13.1393   -5.1556   -1.4914 H   0  0  0  0  0  0  0  0  0  0  0  0
   13.7776   -9.0391   -2.5345 C   0  0  0  0  0  0  0  0  0  0  0  0
   14.8281   -9.2436   -2.6208 H   0  0  0  0  0  0  0  0  0  0  0  0
  1  2  1  0
  2  3  2  0
  3  4  1  0
  4  5  1  0
  5  6  1  0
  5  7  1  0
  5  8  1  0
  4  9  2  0
  9 10  1  0
 10 11  1  0
 11 12  2  0
 12 13  1  0
 12 14  1  0
 14 15  1  0
 14 16  2  0
 16 17  1  0
 16 18  1  0
 18 19  1  0
 19 20  1  0
 20 21  2  0
 21 22  1  0
 21 23  1  0
 23 24  1  0
 23 25  2  0
 25 26  1  0
 25 27  1  0
 27 28  1  0
 27 29  2  0
 29 30  1  0
 19 31  1  0
 31 32  2  0
 31 33  1  0
 33 34  1  0
 34 35  1  0
 34 36  1  0
 34 37  1  0
 33 38  1  0
 38 39  1  0
 39 40  1  0
 39 41  1  0
 38 42  2  0
 42 43  1  0
 18 44  2  0
 44 45  1  0
 10 46  2  0
 46 47  1  0
 46  2  1  0
 44 11  1  0
 42 19  1  0
 29 20  1  0
M  CHG  1  42   1
M  END
>  <score>  (456) 
4.93618

$$$$

     RDKit          3D

 44 46  0  0  0  0  0  0  0  0999 V2000
   12.9104  -10.3268   -4.2848 H   0  0  0  0  0  0  0  0  0  0  0  0
   13.2695   -9.5723   -3.7800 O   0  0  0  0  0  0  0  0  0  0  0  0
   12.6165   -9.4591   -2.5080 C   0  0  0  0  0  0  0  0  0  0  0  0
   11.5358   -9.3698   -2.6620 H   0  0  0  0  0  0  0  0  0  0  0  0
   12.7954  -10.3747   -1.9337 H   0  0  0  0  0  0  0  0  0  0  0  0
   13.0615   -8.2259   -1.6979 C   0  0  0  0  0  0  0  0  0  0  0  0
   12.8484   -7.3235   -2.2721 H   0  0  0  0  0  0  0  0  0  0  0  0
   12.4596   -8.2137   -0.7857 H   0  0  0  0  0  0  0  0  0  0  0  0
   14.4509   -8.2667   -1.3433 O   0  0  0  0  0  0  0  0  0  0  0  0
   15.1283   -7.0927   -1.0837 C   0  0  0  0  0  0  0  0  0  0  0  0
   16.4900   -7.2757   -0.8361 C   0  0  0  0  0  0  0  0  0  0  0  0
   16.8831   -8.2855   -0.8480 H   0  0  0  0  0  0  0  0  0  0  0  0
   17.3307   -6.1928   -0.5815 C   0  0  0  0  0  0  0  0  0  0  0  0
   18.3798   -6.3599   -0.3524 H   0  0  0  0  0  0  0  0  0  0  0  0
   16.8135   -4.9028   -0.5791 C   0  0  0  0  0  0  0  0  0  0  0  0
   17.4752   -4.0567   -0.4076 H   0  0  0  0  0  0  0  0  0  0  0  0
   15.4457   -4.6691   -0.7700 C   0  0  0  0  0  0  0  0  0  0  0  0
   14.9415   -3.2404   -0.6092 C   0  0  0  0  0  0  0  0  0  0  0  0
   15.4381   -2.2698   -1.6815 C   0  0  0  0  0  0  0  0  0  0  0  0
   15.9518   -2.6956   -2.9225 C   0  0  0  0  0  0  0  0  0  0  0  0
   16.0092   -3.7552   -3.1522 H   0  0  0  0  0  0  0  0  0  0  0  0
   16.4005   -1.7596   -3.8700 C   0  0  0  0  0  0  0  0  0  0  0  0
   16.8065   -2.0925   -4.8199 H   0  0  0  0  0  0  0  0  0  0  0  0
   16.3334   -0.3897   -3.5957 C   0  0  0  0  0  0  0  0  0  0  0  0
   16.6954    0.3331   -4.3233 H   0  0  0  0  0  0  0  0  0  0  0  0
   15.8028    0.0461   -2.3793 C   0  0  0  0  0  0  0  0  0  0  0  0
   15.7410    1.1068   -2.1540 H   0  0  0  0  0  0  0  0  0  0  0  0
   15.3546   -0.8880   -1.4396 C   0  0  0  0  0  0  0  0  0  0  0  0
   14.9438   -0.5387   -0.4966 H   0  0  0  0  0  0  0  0  0  0  0  0
   13.4153   -3.1386   -0.4499 C   0  0  0  0  0  0  0  0  0  0  0  0
   12.5707   -3.4476   -1.2869 O   0  0  0  0  0  0  0  0  0  0  0  0
   13.1165   -2.6419    0.8055 N   0  0  0  0  0  0  0  0  0  0  0  0
   11.7903   -2.3155    1.3272 C   0  0  0  0  0  0  0  0  0  0  0  0
   11.0162   -2.5166    0.5788 H   0  0  0  0  0  0  0  0  0  0  0  0
   11.5599   -2.9079    2.2193 H   0  0  0  0  0  0  0  0  0  0  0  0
   11.7381   -1.2545    1.5925 H   0  0  0  0  0  0  0  0  0  0  0  0
   14.3127   -2.4631    1.4688 C   0  0  0  0  0  0  0  0  0  0  0  0
   14.4802   -2.0600    2.7576 N   0  0  0  0  0  0  0  0  0  0  0  0
   13.6707   -2.0972    3.3735 H   0  0  0  0  0  0  0  0  0  0  0  0
   15.4060   -2.2016    3.1634 H   0  0  0  0  0  0  0  0  0  0  0  0
   15.3320   -2.7587    0.7341 N   0  0  0  0  0  4  0  0  0  0  0  0
   16.2889   -2.8043    1.0894 H   0  0  0  0  0  0  0  0  0  0  0  0
   14.6004   -5.7764   -1.0406 C   0  0  0  0  0  0  0  0  0  0  0  0
   13.5385   -5.5964   -1.1815 H   0  0  0  0  0  0  0  0  0  0  0  0
  1  2  1  0
  2  3  1  0
  3  4  1  0
  3  5  1  0
  3  6  1  0
  6  7  1  0
  6  8  1  0
  6  9  1  0
  9 10  1  0
 10 11  2  0
 11 12  1  0
 11 13  1  0
 13 14  1  0
 13 15  2  0
 15 16  1  0
 15 17  1  0
 17 18  1  0
 18 19  1  0
 19 20  2  0
 20 21  1  0
 20 22  1  0
 22 23  1  0
 22 24  2  0
 24 25  1  0
 24 26  1  0
 26 27  1  0
 26 28  2  0
 28 29  1  0
 18 30  1  0
 30 31  2  0
 30 32  1  0
 32 33  1  0
 33 34  1  0
 33 35  1  0
 33 36  1  0
 32 37  1  0
 37 38  1  0
 38 39  1  0
 38 40  1  0
 37 41  2  0
 41 42  1  0
 17 43  2  0
 43 44  1  0
 43 10  1  0
 41 18  1  0
 28 19  1  0
M  CHG  1  41   1
M  END
>  <score>  (457) 
4.92692

$$$$

     RDKit          3D

 45 48  0  0  0  0  0  0  0  0999 V2000
   10.3962   -8.9174   -1.4779 H   0  0  0  0  0  0  0  0  0  0  0  0
   11.3912   -8.8250   -1.9032 C   0  0  0  0  0  0  0  0  0  0  0  0
   11.7774   -9.7330   -2.8167 N   0  0  0  0  0  0  0  0  0  0  0  0
   13.0257   -9.6519   -3.3136 C   0  0  0  0  0  0  0  0  0  0  0  0
   13.3471  -10.3787   -4.0546 H   0  0  0  0  0  0  0  0  0  0  0  0
   13.9070   -8.6577   -2.8929 C   0  0  0  0  0  0  0  0  0  0  0  0
   14.9042   -8.5425   -3.2758 H   0  0  0  0  0  0  0  0  0  0  0  0
   13.5346   -7.7145   -1.9543 C   0  0  0  0  0  0  0  0  0  0  0  0
   14.5131   -6.7358   -1.4684 C   0  0  0  0  0  0  0  0  0  0  0  0
   15.7976   -7.1958   -1.1567 C   0  0  0  0  0  0  0  0  0  0  0  0
   16.0038   -8.2552   -1.2614 H   0  0  0  0  0  0  0  0  0  0  0  0
   16.7819   -6.3294   -0.6880 C   0  0  0  0  0  0  0  0  0  0  0  0
   17.7581   -6.7170   -0.4054 H   0  0  0  0  0  0  0  0  0  0  0  0
   16.4896   -4.9693   -0.5545 C   0  0  0  0  0  0  0  0  0  0  0  0
   17.2608   -4.2967   -0.1948 H   0  0  0  0  0  0  0  0  0  0  0  0
   15.2043   -4.4734   -0.8292 C   0  0  0  0  0  0  0  0  0  0  0  0
   14.8941   -2.9955   -0.5827 C   0  0  0  0  0  0  0  0  0  0  0  0
   15.4545   -2.0641   -1.6532 C   0  0  0  0  0  0  0  0  0  0  0  0
   15.9550   -2.5538   -2.8744 C   0  0  0  0  0  0  0  0  0  0  0  0
   15.9760   -3.6247   -3.0550 H   0  0  0  0  0  0  0  0  0  0  0  0
   16.4178   -1.6764   -3.8649 C   0  0  0  0  0  0  0  0  0  0  0  0
   16.8058   -2.0607   -4.8031 H   0  0  0  0  0  0  0  0  0  0  0  0
   16.3778   -0.2951   -3.6538 C   0  0  0  0  0  0  0  0  0  0  0  0
   16.7407    0.3843   -4.4203 H   0  0  0  0  0  0  0  0  0  0  0  0
   15.8611    0.2089   -2.4569 C   0  0  0  0  0  0  0  0  0  0  0  0
   15.8139    1.2829   -2.2962 H   0  0  0  0  0  0  0  0  0  0  0  0
   15.4002   -0.6698   -1.4688 C   0  0  0  0  0  0  0  0  0  0  0  0
   14.9885   -0.2629   -0.5491 H   0  0  0  0  0  0  0  0  0  0  0  0
   13.3847   -2.7531   -0.4310 C   0  0  0  0  0  0  0  0  0  0  0  0
   12.5242   -2.9227   -1.2920 O   0  0  0  0  0  0  0  0  0  0  0  0
   13.0960   -2.3940    0.8688 N   0  0  0  0  0  0  0  0  0  0  0  0
   11.7472   -2.2184    1.4118 C   0  0  0  0  0  0  0  0  0  0  0  0
   11.5843   -1.1811    1.7218 H   0  0  0  0  0  0  0  0  0  0  0  0
   10.9947   -2.4632    0.6523 H   0  0  0  0  0  0  0  0  0  0  0  0
   11.5816   -2.8754    2.2724 H   0  0  0  0  0  0  0  0  0  0  0  0
   14.2869   -2.4179    1.5628 C   0  0  0  0  0  0  0  0  0  0  0  0
   14.4401   -2.3230    2.9192 N   0  0  0  0  0  0  0  0  0  0  0  0
   13.6398   -2.0223    3.4722 H   0  0  0  0  0  0  0  0  0  0  0  0
   15.3762   -2.1332    3.2691 H   0  0  0  0  0  0  0  0  0  0  0  0
   15.3086   -2.6189    0.7928 N   0  0  0  0  0  4  0  0  0  0  0  0
   16.2420   -2.7982    1.1651 H   0  0  0  0  0  0  0  0  0  0  0  0
   14.2147   -5.3728   -1.2904 C   0  0  0  0  0  0  0  0  0  0  0  0
   13.2118   -5.0141   -1.5112 H   0  0  0  0  0  0  0  0  0  0  0  0
   12.2375   -7.8000   -1.4673 C   0  0  0  0  0  0  0  0  0  0  0  0
   11.9071   -7.1031   -0.7125 H   0  0  0  0  0  0  0  0  0  0  0  0
  1  2  1  0
  2  3  2  0
  3  4  1  0
  4  5  1  0
  4  6  2  0
  6  7  1  0
  6  8  1  0
  8  9  1  0
  9 10  2  0
 10 11  1  0
 10 12  1  0
 12 13  1  0
 12 14  2  0
 14 15  1  0
 14 16  1  0
 16 17  1  0
 17 18  1  0
 18 19  2  0
 19 20  1  0
 19 21  1  0
 21 22  1  0
 21 23  2  0
 23 24  1  0
 23 25  1  0
 25 26  1  0
 25 27  2  0
 27 28  1  0
 17 29  1  0
 29 30  2  0
 29 31  1  0
 31 32  1  0
 32 33  1  0
 32 34  1  0
 32 35  1  0
 31 36  1  0
 36 37  1  0
 37 38  1  0
 37 39  1  0
 36 40  2  0
 40 41  1  0
 16 42  2  0
 42 43  1  0
  8 44  2  0
 44 45  1  0
 44  2  1  0
 42  9  1  0
 40 17  1  0
 27 18  1  0
M  CHG  1  40   1
M  END
>  <score>  (458) 
4.92339

$$$$

     RDKit          3D

 43 46  0  0  0  0  0  0  0  0999 V2000
   10.6407   -9.8279   -2.6914 H   0  0  0  0  0  0  0  0  0  0  0  0
   11.6026   -9.3821   -2.4691 C   0  0  0  0  0  0  0  0  0  0  0  0
   11.7947   -7.7703   -1.7812 S   0  0  0  0  0  0  0  0  0  0  0  0
   13.5424   -7.9334   -1.8079 C   0  0  0  0  0  0  0  0  0  0  0  0
   14.5149   -6.9272   -1.3604 C   0  0  0  0  0  0  0  0  0  0  0  0
   15.8276   -7.3352   -1.0983 C   0  0  0  0  0  0  0  0  0  0  0  0
   16.0630   -8.3892   -1.1637 H   0  0  0  0  0  0  0  0  0  0  0  0
   16.8195   -6.4178   -0.7466 C   0  0  0  0  0  0  0  0  0  0  0  0
   17.8214   -6.7656   -0.5068 H   0  0  0  0  0  0  0  0  0  0  0  0
   16.5099   -5.0612   -0.6610 C   0  0  0  0  0  0  0  0  0  0  0  0
   17.2784   -4.3479   -0.3683 H   0  0  0  0  0  0  0  0  0  0  0  0
   15.1927   -4.6170   -0.8608 C   0  0  0  0  0  0  0  0  0  0  0  0
   14.8713   -3.1414   -0.6260 C   0  0  0  0  0  0  0  0  0  0  0  0
   15.4262   -2.1852   -1.6792 C   0  0  0  0  0  0  0  0  0  0  0  0
   15.9433   -2.6391   -2.9067 C   0  0  0  0  0  0  0  0  0  0  0  0
   15.9812   -3.7032   -3.1172 H   0  0  0  0  0  0  0  0  0  0  0  0
   16.4107   -1.7290   -3.8669 C   0  0  0  0  0  0  0  0  0  0  0  0
   16.8112   -2.0810   -4.8112 H   0  0  0  0  0  0  0  0  0  0  0  0
   16.3618   -0.3549   -3.6174 C   0  0  0  0  0  0  0  0  0  0  0  0
   16.7265    0.3510   -4.3588 H   0  0  0  0  0  0  0  0  0  0  0  0
   15.8321    0.1110   -2.4128 C   0  0  0  0  0  0  0  0  0  0  0  0
   15.7793    1.1771   -2.2140 H   0  0  0  0  0  0  0  0  0  0  0  0
   15.3649   -0.7974   -1.4567 C   0  0  0  0  0  0  0  0  0  0  0  0
   14.9488   -0.4225   -0.5255 H   0  0  0  0  0  0  0  0  0  0  0  0
   13.3607   -2.9100   -0.4635 C   0  0  0  0  0  0  0  0  0  0  0  0
   12.4899   -3.1105   -1.3056 O   0  0  0  0  0  0  0  0  0  0  0  0
   13.0893   -2.5067    0.8273 N   0  0  0  0  0  0  0  0  0  0  0  0
   11.7583   -2.2508    1.3753 C   0  0  0  0  0  0  0  0  0  0  0  0
   11.6571   -1.1992    1.6665 H   0  0  0  0  0  0  0  0  0  0  0  0
   10.9891   -2.4712    0.6252 H   0  0  0  0  0  0  0  0  0  0  0  0
   11.5689   -2.8833    2.2504 H   0  0  0  0  0  0  0  0  0  0  0  0
   14.2911   -2.4588    1.4997 C   0  0  0  0  0  0  0  0  0  0  0  0
   14.4657   -2.1832    2.8266 N   0  0  0  0  0  0  0  0  0  0  0  0
   15.4043   -2.2061    3.2178 H   0  0  0  0  0  0  0  0  0  0  0  0
   13.6531   -2.0762    3.4332 H   0  0  0  0  0  0  0  0  0  0  0  0
   15.2959   -2.7437    0.7397 N   0  0  0  0  0  4  0  0  0  0  0  0
   16.2463   -2.8693    1.0945 H   0  0  0  0  0  0  0  0  0  0  0  0
   14.1953   -5.5663   -1.2043 C   0  0  0  0  0  0  0  0  0  0  0  0
   13.1691   -5.2417   -1.3520 H   0  0  0  0  0  0  0  0  0  0  0  0
   13.9206   -9.1483   -2.3223 C   0  0  0  0  0  0  0  0  0  0  0  0
   14.9580   -9.4276   -2.4273 H   0  0  0  0  0  0  0  0  0  0  0  0
   12.8073   -9.9950   -2.7011 C   0  0  0  0  0  0  0  0  0  0  0  0
   12.9248  -10.9846   -3.1270 H   0  0  0  0  0  0  0  0  0  0  0  0
  1  2  1  0
  2  3  1  0
  3  4  1  0
  4  5  1  0
  5  6  2  0
  6  7  1  0
  6  8  1  0
  8  9  1  0
  8 10  2  0
 10 11  1  0
 10 12  1  0
 12 13  1  0
 13 14  1  0
 14 15  2  0
 15 16  1  0
 15 17  1  0
 17 18  1  0
 17 19  2  0
 19 20  1  0
 19 21  1  0
 21 22  1  0
 21 23  2  0
 23 24  1  0
 13 25  1  0
 25 26  2  0
 25 27  1  0
 27 28  1  0
 28 29  1  0
 28 30  1  0
 28 31  1  0
 27 32  1  0
 32 33  1  0
 33 34  1  0
 33 35  1  0
 32 36  2  0
 36 37  1  0
 12 38  2  0
 38 39  1  0
  4 40  2  0
 40 41  1  0
 40 42  1  0
 42 43  1  0
 42  2  2  0
 38  5  1  0
 36 13  1  0
 23 14  1  0
M  CHG  1  36   1
M  END
>  <score>  (459) 
4.92271

$$$$

     RDKit          3D

 52 55  0  0  0  0  0  0  0  0999 V2000
    9.6536   -8.8273   -2.1164 H   0  0  0  0  0  0  0  0  0  0  0  0
   10.0995   -8.9402   -1.2593 O   0  0  0  0  0  0  0  0  0  0  0  0
   11.5303   -9.0080   -1.4040 C   0  0  2  0  0  0  0  0  0  0  0  0
   11.9438   -9.5679   -0.5547 H   0  0  0  0  0  0  0  0  0  0  0  0
   12.2010   -7.6063   -1.3694 C   0  0  0  0  0  0  0  0  0  0  0  0
   12.0643   -7.2162   -0.3531 H   0  0  0  0  0  0  0  0  0  0  0  0
   11.7169   -6.9042   -2.0672 H   0  0  0  0  0  0  0  0  0  0  0  0
   13.6504   -7.7434   -1.6734 N   0  0  0  0  0  0  0  0  0  0  0  0
   14.6048   -6.8087   -1.2382 C   0  0  0  0  0  0  0  0  0  0  0  0
   15.9120   -7.2387   -0.9923 C   0  0  0  0  0  0  0  0  0  0  0  0
   16.1174   -8.3019   -1.0726 H   0  0  0  0  0  0  0  0  0  0  0  0
   16.9125   -6.3229   -0.6398 C   0  0  0  0  0  0  0  0  0  0  0  0
   17.9258   -6.6612   -0.4392 H   0  0  0  0  0  0  0  0  0  0  0  0
   16.6045   -4.9591   -0.5423 C   0  0  0  0  0  0  0  0  0  0  0  0
   17.3844   -4.2426   -0.2995 H   0  0  0  0  0  0  0  0  0  0  0  0
   15.2878   -4.5067   -0.7253 C   0  0  0  0  0  0  0  0  0  0  0  0
   14.9387   -3.0334   -0.5380 C   0  0  0  0  0  0  0  0  0  0  0  0
   15.4797   -2.1063   -1.6225 C   0  0  0  0  0  0  0  0  0  0  0  0
   15.9698   -2.5973   -2.8474 C   0  0  0  0  0  0  0  0  0  0  0  0
   15.9990   -3.6699   -3.0183 H   0  0  0  0  0  0  0  0  0  0  0  0
   16.4151   -1.7146   -3.8416 C   0  0  0  0  0  0  0  0  0  0  0  0
   16.7976   -2.0955   -4.7826 H   0  0  0  0  0  0  0  0  0  0  0  0
   16.3654   -0.3346   -3.6325 C   0  0  0  0  0  0  0  0  0  0  0  0
   16.7146    0.3475   -4.4020 H   0  0  0  0  0  0  0  0  0  0  0  0
   15.8589    0.1640   -2.4300 C   0  0  0  0  0  0  0  0  0  0  0  0
   15.8081    1.2346   -2.2685 H   0  0  0  0  0  0  0  0  0  0  0  0
   15.4171   -0.7148   -1.4372 C   0  0  0  0  0  0  0  0  0  0  0  0
   15.0161   -0.3146   -0.5090 H   0  0  0  0  0  0  0  0  0  0  0  0
   13.4203   -2.8324   -0.3997 C   0  0  0  0  0  0  0  0  0  0  0  0
   12.5641   -3.0548   -1.2521 O   0  0  0  0  0  0  0  0  0  0  0  0
   13.1193   -2.4195    0.8813 N   0  0  0  0  0  0  0  0  0  0  0  0
   11.7754   -2.2242    1.4302 C   0  0  0  0  0  0  0  0  0  0  0  0
   11.6059   -2.8693    2.3008 H   0  0  0  0  0  0  0  0  0  0  0  0
   11.6280   -1.1812    1.7309 H   0  0  0  0  0  0  0  0  0  0  0  0
   11.0159   -2.4665    0.6778 H   0  0  0  0  0  0  0  0  0  0  0  0
   14.3112   -2.3812    1.5711 C   0  0  0  0  0  0  0  0  0  0  0  0
   14.4583   -2.1846    2.9089 N   0  0  0  0  0  0  0  0  0  0  0  0
   15.3940   -2.1393    3.3078 H   0  0  0  0  0  0  0  0  0  0  0  0
   13.6372   -2.0208    3.4882 H   0  0  0  0  0  0  0  0  0  0  0  0
   15.3385   -2.6186    0.8214 N   0  0  0  0  0  4  0  0  0  0  0  0
   16.2748   -2.7775    1.1963 H   0  0  0  0  0  0  0  0  0  0  0  0
   14.2950   -5.4553   -1.0599 C   0  0  0  0  0  0  0  0  0  0  0  0
   13.2606   -5.1648   -1.1981 H   0  0  0  0  0  0  0  0  0  0  0  0
   14.0096   -8.5025   -2.8862 C   0  0  0  0  0  0  0  0  0  0  0  0
   15.0934   -8.6198   -2.9031 H   0  0  0  0  0  0  0  0  0  0  0  0
   13.7326   -7.9311   -3.7760 H   0  0  0  0  0  0  0  0  0  0  0  0
   13.3458   -9.8858   -2.9386 C   0  0  0  0  0  0  0  0  0  0  0  0
   13.8069  -10.5312   -2.1859 H   0  0  0  0  0  0  0  0  0  0  0  0
   13.5311  -10.3388   -3.9198 H   0  0  0  0  0  0  0  0  0  0  0  0
   11.8335   -9.8108   -2.6841 C   0  0  0  0  0  0  0  0  0  0  0  0
   11.4313  -10.8260   -2.5869 H   0  0  0  0  0  0  0  0  0  0  0  0
   11.3426   -9.3593   -3.5489 H   0  0  0  0  0  0  0  0  0  0  0  0
  1  2  1  0
  2  3  1  0
  3  4  1  1
  3  5  1  0
  5  6  1  0
  5  7  1  0
  5  8  1  0
  8  9  1  0
  9 10  2  0
 10 11  1  0
 10 12  1  0
 12 13  1  0
 12 14  2  0
 14 15  1  0
 14 16  1  0
 16 17  1  0
 17 18  1  0
 18 19  2  0
 19 20  1  0
 19 21  1  0
 21 22  1  0
 21 23  2  0
 23 24  1  0
 23 25  1  0
 25 26  1  0
 25 27  2  0
 27 28  1  0
 17 29  1  0
 29 30  2  0
 29 31  1  0
 31 32  1  0
 32 33  1  0
 32 34  1  0
 32 35  1  0
 31 36  1  0
 36 37  1  0
 37 38  1  0
 37 39  1  0
 36 40  2  0
 40 41  1  0
 16 42  2  0
 42 43  1  0
  8 44  1  0
 44 45  1  0
 44 46  1  0
 44 47  1  0
 47 48  1  0
 47 49  1  0
 47 50  1  0
 50 51  1  0
 50 52  1  0
 50  3  1  0
 42  9  1  0
 40 17  1  0
 27 18  1  0
M  CHG  1  40   1
M  END
>  <score>  (460) 
4.9212

$$$$

     RDKit          3D

 49 52  0  0  0  0  0  0  0  0999 V2000
   11.7625   -7.1794   -0.9061 H   0  0  0  0  0  0  0  0  0  0  0  0
   12.2138   -7.8468   -1.6247 C   0  0  0  0  0  0  0  0  0  0  0  0
   13.5782   -7.7680   -1.8979 C   0  0  0  0  0  0  0  0  0  0  0  0
   14.5348   -6.7850   -1.3427 C   0  0  0  0  0  0  0  0  0  0  0  0
   15.8624   -7.1885   -1.0784 C   0  0  0  0  0  0  0  0  0  0  0  0
   16.1579   -8.2251   -1.2304 H   0  0  0  0  0  0  0  0  0  0  0  0
   16.8190   -6.2674   -0.6454 C   0  0  0  0  0  0  0  0  0  0  0  0
   17.8401   -6.5810   -0.4429 H   0  0  0  0  0  0  0  0  0  0  0  0
   16.4596   -4.9323   -0.4796 C   0  0  0  0  0  0  0  0  0  0  0  0
   17.2028   -4.2312   -0.1130 H   0  0  0  0  0  0  0  0  0  0  0  0
   15.1618   -4.4867   -0.7657 C   0  0  0  0  0  0  0  0  0  0  0  0
   14.8329   -3.0117   -0.5642 C   0  0  0  0  0  0  0  0  0  0  0  0
   15.4205   -2.0790   -1.6222 C   0  0  0  0  0  0  0  0  0  0  0  0
   15.9382   -2.5795   -2.8296 C   0  0  0  0  0  0  0  0  0  0  0  0
   15.9610   -3.6509   -3.0023 H   0  0  0  0  0  0  0  0  0  0  0  0
   16.4156   -1.7142   -3.8221 C   0  0  0  0  0  0  0  0  0  0  0  0
   16.8067   -2.1101   -4.7532 H   0  0  0  0  0  0  0  0  0  0  0  0
   16.3860   -0.3310   -3.6257 C   0  0  0  0  0  0  0  0  0  0  0  0
   16.7545    0.3407   -4.3964 H   0  0  0  0  0  0  0  0  0  0  0  0
   15.8803    0.1860   -2.4297 C   0  0  0  0  0  0  0  0  0  0  0  0
   15.8549    1.2612   -2.2716 H   0  0  0  0  0  0  0  0  0  0  0  0
   15.4001   -0.6808   -1.4383 C   0  0  0  0  0  0  0  0  0  0  0  0
   15.0004   -0.2603   -0.5187 H   0  0  0  0  0  0  0  0  0  0  0  0
   13.3236   -2.7690   -0.3951 C   0  0  0  0  0  0  0  0  0  0  0  0
   12.4444   -2.9138   -1.2433 O   0  0  0  0  0  0  0  0  0  0  0  0
   13.0729   -2.3918    0.9079 N   0  0  0  0  0  0  0  0  0  0  0  0
   11.7622   -2.1797    1.5146 C   0  0  0  0  0  0  0  0  0  0  0  0
   11.6391   -2.8140    2.4015 H   0  0  0  0  0  0  0  0  0  0  0  0
   10.9573   -2.4184    0.8080 H   0  0  0  0  0  0  0  0  0  0  0  0
   11.6599   -1.1314    1.8119 H   0  0  0  0  0  0  0  0  0  0  0  0
   14.2783   -2.4040    1.5680 C   0  0  0  0  0  0  0  0  0  0  0  0
   14.4399   -2.2549    2.9136 N   0  0  0  0  0  0  0  0  0  0  0  0
   15.3855   -2.1276    3.2645 H   0  0  0  0  0  0  0  0  0  0  0  0
   13.6496   -1.9129    3.4559 H   0  0  0  0  0  0  0  0  0  0  0  0
   15.2817   -2.6396    0.7939 N   0  0  0  0  0  4  0  0  0  0  0  0
   16.2105   -2.8675    1.1521 H   0  0  0  0  0  0  0  0  0  0  0  0
   14.2050   -5.4277   -1.2065 C   0  0  0  0  0  0  0  0  0  0  0  0
   13.2071   -5.1130   -1.4922 H   0  0  0  0  0  0  0  0  0  0  0  0
   14.1931   -8.7496   -2.8465 C   0  0  0  0  0  0  0  0  0  0  0  0
   14.8857   -9.3809   -2.2856 H   0  0  0  0  0  0  0  0  0  0  0  0
   14.7600   -8.1651   -3.5719 H   0  0  0  0  0  0  0  0  0  0  0  0
   13.2277   -9.6601   -3.5947 C   0  0  0  0  0  0  0  0  0  0  0  0
   13.7462  -10.5584   -3.9335 H   0  0  0  0  0  0  0  0  0  0  0  0
   12.8656   -9.1640   -4.4966 H   0  0  0  0  0  0  0  0  0  0  0  0
   12.1357  -10.0279   -2.6882 N   0  0  0  0  0  0  0  0  0  0  0  0
   12.5250  -10.4833   -1.8659 H   0  0  0  0  0  0  0  0  0  0  0  0
   11.3144   -8.8930   -2.2577 C   0  0  0  0  0  0  0  0  0  0  0  0
   10.7696   -8.4572   -3.0978 H   0  0  0  0  0  0  0  0  0  0  0  0
   10.5644   -9.2592   -1.5522 H   0  0  0  0  0  0  0  0  0  0  0  0
  1  2  1  0
  2  3  2  0
  3  4  1  0
  4  5  2  0
  5  6  1  0
  5  7  1  0
  7  8  1  0
  7  9  2  0
  9 10  1  0
  9 11  1  0
 11 12  1  0
 12 13  1  0
 13 14  2  0
 14 15  1  0
 14 16  1  0
 16 17  1  0
 16 18  2  0
 18 19  1  0
 18 20  1  0
 20 21  1  0
 20 22  2  0
 22 23  1  0
 12 24  1  0
 24 25  2  0
 24 26  1  0
 26 27  1  0
 27 28  1  0
 27 29  1  0
 27 30  1  0
 26 31  1  0
 31 32  1  0
 32 33  1  0
 32 34  1  0
 31 35  2  0
 35 36  1  0
 11 37  2  0
 37 38  1  0
  3 39  1  0
 39 40  1  0
 39 41  1  0
 39 42  1  0
 42 43  1  0
 42 44  1  0
 42 45  1  0
 45 46  1  0
 45 47  1  0
 47 48  1  0
 47 49  1  0
 47  2  1  0
 37  4  1  0
 35 12  1  0
 22 13  1  0
M  CHG  1  35   1
M  END
>  <score>  (461) 
4.91288

$$$$

     RDKit          3D

 45 48  0  0  0  0  0  0  0  0999 V2000
    8.6692   -8.8847   -1.9947 H   0  0  0  0  0  0  0  0  0  0  0  0
    9.6572   -8.4462   -1.9297 C   0  0  0  0  0  0  0  0  0  0  0  0
   11.0942   -9.2438   -2.5253 S   0  0  0  0  0  0  0  0  0  0  0  0
   12.1025   -7.9183   -1.9470 C   0  0  0  0  0  0  0  0  0  0  0  0
   13.5630   -8.0187   -2.1069 C   0  0  0  0  0  0  0  0  0  0  0  0
   13.9899   -9.0339   -2.6501 O   0  0  0  0  0  0  0  0  0  0  0  0
   14.5434   -7.0349   -1.5917 C   0  0  0  0  0  0  0  0  0  0  0  0
   15.8600   -7.4508   -1.3015 C   0  0  0  0  0  0  0  0  0  0  0  0
   16.1499   -8.4905   -1.4398 H   0  0  0  0  0  0  0  0  0  0  0  0
   16.8123   -6.5455   -0.8301 C   0  0  0  0  0  0  0  0  0  0  0  0
   17.8143   -6.8913   -0.5870 H   0  0  0  0  0  0  0  0  0  0  0  0
   16.4762   -5.2024   -0.6597 C   0  0  0  0  0  0  0  0  0  0  0  0
   17.2285   -4.5105   -0.2876 H   0  0  0  0  0  0  0  0  0  0  0  0
   15.1745   -4.7550   -0.9344 C   0  0  0  0  0  0  0  0  0  0  0  0
   14.8091   -3.3013   -0.6851 C   0  0  0  0  0  0  0  0  0  0  0  0
   15.3623   -2.3242   -1.7159 C   0  0  0  0  0  0  0  0  0  0  0  0
   15.9055   -2.7415   -2.9461 C   0  0  0  0  0  0  0  0  0  0  0  0
   15.9510   -3.7997   -3.1872 H   0  0  0  0  0  0  0  0  0  0  0  0
   16.3962   -1.7981   -3.8604 C   0  0  0  0  0  0  0  0  0  0  0  0
   16.8253   -2.1236   -4.8021 H   0  0  0  0  0  0  0  0  0  0  0  0
   16.3429   -0.4336   -3.5624 C   0  0  0  0  0  0  0  0  0  0  0  0
   16.7297    0.2935   -4.2706 H   0  0  0  0  0  0  0  0  0  0  0  0
   15.7898   -0.0077   -2.3523 C   0  0  0  0  0  0  0  0  0  0  0  0
   15.7462    1.0495   -2.1116 H   0  0  0  0  0  0  0  0  0  0  0  0
   15.2980   -0.9474   -1.4435 C   0  0  0  0  0  0  0  0  0  0  0  0
   14.8687   -0.6063   -0.5047 H   0  0  0  0  0  0  0  0  0  0  0  0
   13.2947   -3.0791   -0.4906 C   0  0  0  0  0  0  0  0  0  0  0  0
   12.3985   -3.3004   -1.3010 O   0  0  0  0  0  0  0  0  0  0  0  0
   13.0602   -2.6120    0.7865 N   0  0  0  0  0  0  0  0  0  0  0  0
   11.7613   -2.2644    1.3633 C   0  0  0  0  0  0  0  0  0  0  0  0
   11.7341   -1.2055    1.6393 H   0  0  0  0  0  0  0  0  0  0  0  0
   11.5611   -2.8620    2.2589 H   0  0  0  0  0  0  0  0  0  0  0  0
   10.9523   -2.4482    0.6472 H   0  0  0  0  0  0  0  0  0  0  0  0
   14.2793   -2.5474    1.4239 C   0  0  0  0  0  0  0  0  0  0  0  0
   14.4986   -2.1494    2.7061 N   0  0  0  0  0  0  0  0  0  0  0  0
   15.4323   -2.2814    3.0920 H   0  0  0  0  0  0  0  0  0  0  0  0
   13.7030   -2.0719    3.3360 H   0  0  0  0  0  0  0  0  0  0  0  0
   15.2556   -2.9310    0.6710 N   0  0  0  0  0  4  0  0  0  0  0  0
   16.2224   -3.0128    0.9913 H   0  0  0  0  0  0  0  0  0  0  0  0
   14.2204   -5.6787   -1.3979 C   0  0  0  0  0  0  0  0  0  0  0  0
   13.2254   -5.3083   -1.6200 H   0  0  0  0  0  0  0  0  0  0  0  0
   11.3485   -6.9194   -1.3669 C   0  0  0  0  0  0  0  0  0  0  0  0
   11.7453   -6.0086   -0.9311 H   0  0  0  0  0  0  0  0  0  0  0  0
    9.9252   -7.2293   -1.3694 C   0  0  0  0  0  0  0  0  0  0  0  0
    9.1499   -6.5859   -0.9634 H   0  0  0  0  0  0  0  0  0  0  0  0
  1  2  1  0
  2  3  1  0
  3  4  1  0
  4  5  1  0
  5  6  2  0
  5  7  1  0
  7  8  2  0
  8  9  1  0
  8 10  1  0
 10 11  1  0
 10 12  2  0
 12 13  1  0
 12 14  1  0
 14 15  1  0
 15 16  1  0
 16 17  2  0
 17 18  1  0
 17 19  1  0
 19 20  1  0
 19 21  2  0
 21 22  1  0
 21 23  1  0
 23 24  1  0
 23 25  2  0
 25 26  1  0
 15 27  1  0
 27 28  2  0
 27 29  1  0
 29 30  1  0
 30 31  1  0
 30 32  1  0
 30 33  1  0
 29 34  1  0
 34 35  1  0
 35 36  1  0
 35 37  1  0
 34 38  2  0
 38 39  1  0
 14 40  2  0
 40 41  1  0
  4 42  2  0
 42 43  1  0
 42 44  1  0
 44 45  1  0
 44  2  2  0
 40  7  1  0
 38 15  1  0
 25 16  1  0
M  CHG  1  38   1
M  END
>  <score>  (462) 
4.91227

$$$$

     RDKit          3D

 50 53  0  0  0  0  0  0  0  0999 V2000
    7.9820   -7.8773   -2.9519 H   0  0  0  0  0  0  0  0  0  0  0  0
    8.9437   -7.8115   -3.0905 O   0  0  0  0  0  0  0  0  0  0  0  0
    9.6516   -8.3978   -1.9875 C   0  0  0  0  0  0  0  0  0  0  0  0
    9.2462   -9.3919   -1.7814 H   0  0  0  0  0  0  0  0  0  0  0  0
    9.5140   -7.7970   -1.0847 H   0  0  0  0  0  0  0  0  0  0  0  0
   11.1233   -8.5437   -2.2649 C   0  0  0  0  0  0  0  0  0  0  0  0
   11.5938   -9.7031   -2.9025 C   0  0  0  0  0  0  0  0  0  0  0  0
   10.9166  -10.4749   -3.2477 H   0  0  0  0  0  0  0  0  0  0  0  0
   12.9576   -9.9116   -3.0852 C   0  0  0  0  0  0  0  0  0  0  0  0
   13.3179  -10.7955   -3.6031 H   0  0  0  0  0  0  0  0  0  0  0  0
   13.8588   -8.9655   -2.6084 C   0  0  0  0  0  0  0  0  0  0  0  0
   14.9218   -9.1354   -2.6721 H   0  0  0  0  0  0  0  0  0  0  0  0
   13.4328   -7.7681   -2.0288 C   0  0  0  0  0  0  0  0  0  0  0  0
   14.4481   -6.7903   -1.5883 C   0  0  0  0  0  0  0  0  0  0  0  0
   15.7356   -7.2636   -1.2984 C   0  0  0  0  0  0  0  0  0  0  0  0
   15.9621   -8.3169   -1.4312 H   0  0  0  0  0  0  0  0  0  0  0  0
   16.7242   -6.4092   -0.8201 C   0  0  0  0  0  0  0  0  0  0  0  0
   17.7096   -6.8034   -0.5910 H   0  0  0  0  0  0  0  0  0  0  0  0
   16.4364   -5.0571   -0.6251 C   0  0  0  0  0  0  0  0  0  0  0  0
   17.1998   -4.3950   -0.2307 H   0  0  0  0  0  0  0  0  0  0  0  0
   15.1648   -4.5403   -0.9151 C   0  0  0  0  0  0  0  0  0  0  0  0
   14.8623   -3.0700   -0.6482 C   0  0  0  0  0  0  0  0  0  0  0  0
   15.4366   -2.1143   -1.6879 C   0  0  0  0  0  0  0  0  0  0  0  0
   15.9576   -2.5735   -2.9105 C   0  0  0  0  0  0  0  0  0  0  0  0
   15.9903   -3.6397   -3.1103 H   0  0  0  0  0  0  0  0  0  0  0  0
   16.4247   -1.6740   -3.8786 C   0  0  0  0  0  0  0  0  0  0  0  0
   16.8205   -2.0445   -4.8193 H   0  0  0  0  0  0  0  0  0  0  0  0
   16.3728   -0.2969   -3.6408 C   0  0  0  0  0  0  0  0  0  0  0  0
   16.7346    0.3982   -4.3950 H   0  0  0  0  0  0  0  0  0  0  0  0
   15.8503    0.1769   -2.4325 C   0  0  0  0  0  0  0  0  0  0  0  0
   15.7991    1.2463   -2.2459 H   0  0  0  0  0  0  0  0  0  0  0  0
   15.3845   -0.7259   -1.4677 C   0  0  0  0  0  0  0  0  0  0  0  0
   14.9712   -0.3420   -0.5388 H   0  0  0  0  0  0  0  0  0  0  0  0
   13.3535   -2.8239   -0.4812 C   0  0  0  0  0  0  0  0  0  0  0  0
   12.4794   -2.9484   -1.3369 O   0  0  0  0  0  0  0  0  0  0  0  0
   13.0836   -2.4806    0.8266 N   0  0  0  0  0  0  0  0  0  0  0  0
   11.7557   -2.2413    1.3910 C   0  0  0  0  0  0  0  0  0  0  0  0
   11.5787   -2.8810    2.2638 H   0  0  0  0  0  0  0  0  0  0  0  0
   11.6456   -1.1934    1.6918 H   0  0  0  0  0  0  0  0  0  0  0  0
   10.9799   -2.4630    0.6480 H   0  0  0  0  0  0  0  0  0  0  0  0
   14.2876   -2.4784    1.5002 C   0  0  0  0  0  0  0  0  0  0  0  0
   14.4469   -2.2860    2.8424 N   0  0  0  0  0  0  0  0  0  0  0  0
   13.6415   -2.0408    3.4132 H   0  0  0  0  0  0  0  0  0  0  0  0
   15.3889   -2.1995    3.2224 H   0  0  0  0  0  0  0  0  0  0  0  0
   15.2907   -2.7273    0.7250 N   0  0  0  0  0  4  0  0  0  0  0  0
   16.2457   -2.8648    1.0633 H   0  0  0  0  0  0  0  0  0  0  0  0
   14.1796   -5.4178   -1.4217 C   0  0  0  0  0  0  0  0  0  0  0  0
   13.1939   -5.0427   -1.6846 H   0  0  0  0  0  0  0  0  0  0  0  0
   12.0560   -7.5728   -1.8435 C   0  0  0  0  0  0  0  0  0  0  0  0
   11.7313   -6.6711   -1.3406 H   0  0  0  0  0  0  0  0  0  0  0  0
  1  2  1  0
  2  3  1  0
  3  4  1  0
  3  5  1  0
  3  6  1  0
  6  7  2  0
  7  8  1  0
  7  9  1  0
  9 10  1  0
  9 11  2  0
 11 12  1  0
 11 13  1  0
 13 14  1  0
 14 15  2  0
 15 16  1  0
 15 17  1  0
 17 18  1  0
 17 19  2  0
 19 20  1  0
 19 21  1  0
 21 22  1  0
 22 23  1  0
 23 24  2  0
 24 25  1  0
 24 26  1  0
 26 27  1  0
 26 28  2  0
 28 29  1  0
 28 30  1  0
 30 31  1  0
 30 32  2  0
 32 33  1  0
 22 34  1  0
 34 35  2  0
 34 36  1  0
 36 37  1  0
 37 38  1  0
 37 39  1  0
 37 40  1  0
 36 41  1  0
 41 42  1  0
 42 43  1  0
 42 44  1  0
 41 45  2  0
 45 46  1  0
 21 47  2  0
 47 48  1  0
 13 49  2  0
 49 50  1  0
 49  6  1  0
 47 14  1  0
 45 22  1  0
 32 23  1  0
M  CHG  1  45   1
M  END
>  <score>  (463) 
4.90667

$$$$

     RDKit          3D

 42 45  0  0  0  0  0  0  0  0999 V2000
   11.0955   -9.5782   -2.3329 H   0  0  0  0  0  0  0  0  0  0  0  0
   12.1307   -9.2967   -2.1688 C   0  0  0  0  0  0  0  0  0  0  0  0
   13.1799  -10.2046   -2.2343 N   0  0  0  0  0  0  0  0  0  0  0  0
   14.2236   -9.4662   -1.9797 C   0  0  0  0  0  0  0  0  0  0  0  0
   15.2486   -9.8308   -1.9460 H   0  0  0  0  0  0  0  0  0  0  0  0
   13.8314   -8.1524   -1.7549 N   0  0  0  0  0  0  0  0  0  0  0  0
   14.6999   -7.1060   -1.3949 C   0  0  0  0  0  0  0  0  0  0  0  0
   16.0371   -7.4081   -1.1036 C   0  0  0  0  0  0  0  0  0  0  0  0
   16.3701   -8.4370   -1.1568 H   0  0  0  0  0  0  0  0  0  0  0  0
   16.9410   -6.4132   -0.7286 C   0  0  0  0  0  0  0  0  0  0  0  0
   17.9656   -6.6690   -0.4732 H   0  0  0  0  0  0  0  0  0  0  0  0
   16.5184   -5.0921   -0.6515 C   0  0  0  0  0  0  0  0  0  0  0  0
   17.2257   -4.3143   -0.3728 H   0  0  0  0  0  0  0  0  0  0  0  0
   15.1850   -4.7520   -0.9032 C   0  0  0  0  0  0  0  0  0  0  0  0
   14.7592   -3.3151   -0.6776 C   0  0  0  0  0  0  0  0  0  0  0  0
   15.3254   -2.3346   -1.6982 C   0  0  0  0  0  0  0  0  0  0  0  0
   15.8748   -2.7506   -2.9250 C   0  0  0  0  0  0  0  0  0  0  0  0
   15.9171   -3.8074   -3.1660 H   0  0  0  0  0  0  0  0  0  0  0  0
   16.3813   -1.8171   -3.8439 C   0  0  0  0  0  0  0  0  0  0  0  0
   16.8212   -2.1473   -4.7802 H   0  0  0  0  0  0  0  0  0  0  0  0
   16.3349   -0.4489   -3.5544 C   0  0  0  0  0  0  0  0  0  0  0  0
   16.7388    0.2761   -4.2592 H   0  0  0  0  0  0  0  0  0  0  0  0
   15.7782   -0.0220   -2.3445 C   0  0  0  0  0  0  0  0  0  0  0  0
   15.7444    1.0366   -2.1009 H   0  0  0  0  0  0  0  0  0  0  0  0
   15.2730   -0.9574   -1.4339 C   0  0  0  0  0  0  0  0  0  0  0  0
   14.8418   -0.6096   -0.5006 H   0  0  0  0  0  0  0  0  0  0  0  0
   13.2363   -3.1424   -0.5428 C   0  0  0  0  0  0  0  0  0  0  0  0
   12.3918   -3.2686   -1.4255 O   0  0  0  0  0  0  0  0  0  0  0  0
   12.9212   -2.7995    0.7573 N   0  0  0  0  0  0  0  0  0  0  0  0
   11.6106   -2.3697    1.2464 C   0  0  0  0  0  0  0  0  0  0  0  0
   11.2972   -2.9586    2.1150 H   0  0  0  0  0  0  0  0  0  0  0  0
   11.6423   -1.3133    1.5350 H   0  0  0  0  0  0  0  0  0  0  0  0
   10.8485   -2.4909    0.4695 H   0  0  0  0  0  0  0  0  0  0  0  0
   14.1091   -2.7300    1.4521 C   0  0  0  0  0  0  0  0  0  0  0  0
   14.2728   -2.4729    2.7811 N   0  0  0  0  0  0  0  0  0  0  0  0
   15.2247   -2.2814    3.0836 H   0  0  0  0  0  0  0  0  0  0  0  0
   13.4965   -2.0598    3.2929 H   0  0  0  0  0  0  0  0  0  0  0  0
   15.1401   -2.9527    0.7062 N   0  0  0  0  0  4  0  0  0  0  0  0
   16.0968   -3.0097    1.0643 H   0  0  0  0  0  0  0  0  0  0  0  0
   14.2817   -5.7637   -1.2904 C   0  0  0  0  0  0  0  0  0  0  0  0
   13.2470   -5.4990   -1.4859 H   0  0  0  0  0  0  0  0  0  0  0  0
   12.4857   -8.0654   -1.8896 N   0  0  0  0  0  0  0  0  0  0  0  0
  1  2  1  0
  2  3  1  0
  3  4  2  0
  4  5  1  0
  4  6  1  0
  6  7  1  0
  7  8  2  0
  8  9  1  0
  8 10  1  0
 10 11  1  0
 10 12  2  0
 12 13  1  0
 12 14  1  0
 14 15  1  0
 15 16  1  0
 16 17  2  0
 17 18  1  0
 17 19  1  0
 19 20  1  0
 19 21  2  0
 21 22  1  0
 21 23  1  0
 23 24  1  0
 23 25  2  0
 25 26  1  0
 15 27  1  0
 27 28  2  0
 27 29  1  0
 29 30  1  0
 30 31  1  0
 30 32  1  0
 30 33  1  0
 29 34  1  0
 34 35  1  0
 35 36  1  0
 35 37  1  0
 34 38  2  0
 38 39  1  0
 14 40  2  0
 40 41  1  0
  6 42  1  0
 42  2  2  0
 40  7  1  0
 38 15  1  0
 25 16  1  0
M  CHG  1  38   1
M  END
>  <score>  (464) 
4.89179

$$$$

     RDKit          3D

 45 48  0  0  0  0  0  0  0  0999 V2000
   10.0958   -8.1741   -1.9344 H   0  0  0  0  0  0  0  0  0  0  0  0
   11.1388   -8.4106   -2.1192 C   0  0  0  0  0  0  0  0  0  0  0  0
   12.0717   -7.5170   -1.7464 N   0  0  0  0  0  0  0  0  0  0  0  0
   13.3785   -7.8054   -1.9244 C   0  0  0  0  0  0  0  0  0  0  0  0
   14.4395   -6.8489   -1.5035 C   0  0  0  0  0  0  0  0  0  0  0  0
   15.7388   -7.3178   -1.2374 C   0  0  0  0  0  0  0  0  0  0  0  0
   15.9475   -8.3790   -1.3385 H   0  0  0  0  0  0  0  0  0  0  0  0
   16.7485   -6.4477   -0.8089 C   0  0  0  0  0  0  0  0  0  0  0  0
   17.7325   -6.8414   -0.5699 H   0  0  0  0  0  0  0  0  0  0  0  0
   16.4803   -5.0860   -0.6458 C   0  0  0  0  0  0  0  0  0  0  0  0
   17.2600   -4.4193   -0.2820 H   0  0  0  0  0  0  0  0  0  0  0  0
   15.2003   -4.5770   -0.9025 C   0  0  0  0  0  0  0  0  0  0  0  0
   14.8957   -3.1063   -0.6402 C   0  0  0  0  0  0  0  0  0  0  0  0
   15.4517   -2.1481   -1.6863 C   0  0  0  0  0  0  0  0  0  0  0  0
   15.9611   -2.6024   -2.9171 C   0  0  0  0  0  0  0  0  0  0  0  0
   15.9913   -3.6680   -3.1226 H   0  0  0  0  0  0  0  0  0  0  0  0
   16.4198   -1.6930   -3.8800 C   0  0  0  0  0  0  0  0  0  0  0  0
   16.8127   -2.0525   -4.8259 H   0  0  0  0  0  0  0  0  0  0  0  0
   16.3687   -0.3187   -3.6285 C   0  0  0  0  0  0  0  0  0  0  0  0
   16.7322    0.3827   -4.3746 H   0  0  0  0  0  0  0  0  0  0  0  0
   15.8400    0.1466   -2.4212 C   0  0  0  0  0  0  0  0  0  0  0  0
   15.7827    1.2139   -2.2303 H   0  0  0  0  0  0  0  0  0  0  0  0
   15.3808   -0.7625   -1.4627 C   0  0  0  0  0  0  0  0  0  0  0  0
   14.9598   -0.3849   -0.5340 H   0  0  0  0  0  0  0  0  0  0  0  0
   13.3843   -2.8736   -0.4793 C   0  0  0  0  0  0  0  0  0  0  0  0
   12.5141   -3.0357   -1.3320 O   0  0  0  0  0  0  0  0  0  0  0  0
   13.1043   -2.5108    0.8172 N   0  0  0  0  0  0  0  0  0  0  0  0
   11.7703   -2.2596    1.3620 C   0  0  0  0  0  0  0  0  0  0  0  0
   11.0049   -2.4789    0.6082 H   0  0  0  0  0  0  0  0  0  0  0  0
   11.5725   -2.8911    2.2352 H   0  0  0  0  0  0  0  0  0  0  0  0
   11.6692   -1.2099    1.6540 H   0  0  0  0  0  0  0  0  0  0  0  0
   14.3020   -2.4763    1.4979 C   0  0  0  0  0  0  0  0  0  0  0  0
   14.4641   -2.2387    2.8321 N   0  0  0  0  0  0  0  0  0  0  0  0
   13.6509   -2.0752    3.4238 H   0  0  0  0  0  0  0  0  0  0  0  0
   15.4022   -2.2042    3.2243 H   0  0  0  0  0  0  0  0  0  0  0  0
   15.3098   -2.7423    0.7361 N   0  0  0  0  0  4  0  0  0  0  0  0
   16.2575   -2.8773    1.0941 H   0  0  0  0  0  0  0  0  0  0  0  0
   14.1933   -5.4675   -1.3412 C   0  0  0  0  0  0  0  0  0  0  0  0
   13.1970   -5.0841   -1.5421 H   0  0  0  0  0  0  0  0  0  0  0  0
   13.7531   -9.0271   -2.5102 C   0  0  0  0  0  0  0  0  0  0  0  0
   14.8065   -9.2381   -2.6003 H   0  0  0  0  0  0  0  0  0  0  0  0
   12.8037   -9.9336   -2.9761 C   0  0  0  0  0  0  0  0  0  0  0  0
   13.0727  -10.8507   -3.5048 H   0  0  0  0  0  0  0  0  0  0  0  0
   11.4747   -9.6149   -2.7475 C   0  0  0  0  0  0  0  0  0  0  0  0
   10.7002  -10.2930   -3.0750 H   0  0  0  0  0  0  0  0  0  0  0  0
  1  2  1  0
  2  3  2  0
  3  4  1  0
  4  5  1  0
  5  6  2  0
  6  7  1  0
  6  8  1  0
  8  9  1  0
  8 10  2  0
 10 11  1  0
 10 12  1  0
 12 13  1  0
 13 14  1  0
 14 15  2  0
 15 16  1  0
 15 17  1  0
 17 18  1  0
 17 19  2  0
 19 20  1  0
 19 21  1  0
 21 22  1  0
 21 23  2  0
 23 24  1  0
 13 25  1  0
 25 26  2  0
 25 27  1  0
 27 28  1  0
 28 29  1  0
 28 30  1  0
 28 31  1  0
 27 32  1  0
 32 33  1  0
 33 34  1  0
 33 35  1  0
 32 36  2  0
 36 37  1  0
 12 38  2  0
 38 39  1  0
  4 40  2  0
 40 41  1  0
 40 42  1  0
 42 43  1  0
 42 44  2  0
 44 45  1  0
 44  2  1  0
 38  5  1  0
 36 13  1  0
 23 14  1  0
M  CHG  1  36   1
M  END
>  <score>  (465) 
4.88026

$$$$

     RDKit          3D

 48 50  0  0  0  0  0  0  0  0999 V2000
   13.1573   -8.5335    1.4839 H   0  0  0  0  0  0  0  0  0  0  0  0
   13.1378   -9.0271    0.6438 O   0  0  0  0  0  0  0  0  0  0  0  0
   12.1187   -8.5229   -0.2201 C   0  0  0  0  0  0  0  0  0  0  0  0
   12.2797   -7.4594   -0.4161 H   0  0  0  0  0  0  0  0  0  0  0  0
   11.1382   -8.6325    0.2577 H   0  0  0  0  0  0  0  0  0  0  0  0
   12.1282   -9.2926   -1.5360 C   0  0  0  0  0  0  0  0  0  0  0  0
   11.3326   -8.9109   -2.1812 H   0  0  0  0  0  0  0  0  0  0  0  0
   11.9029  -10.3423   -1.3286 H   0  0  0  0  0  0  0  0  0  0  0  0
   13.4692   -9.2028   -2.2716 C   0  0  0  0  0  0  0  0  0  0  0  0
   13.4131   -9.8241   -3.1748 H   0  0  0  0  0  0  0  0  0  0  0  0
   14.2700   -9.6118   -1.6499 H   0  0  0  0  0  0  0  0  0  0  0  0
   13.7636   -7.8037   -2.6471 N   0  0  0  0  0  0  0  0  0  0  0  0
   13.0941   -7.3329   -3.2434 H   0  0  0  0  0  0  0  0  0  0  0  0
   14.6277   -6.9628   -1.9518 C   0  0  0  0  0  0  0  0  0  0  0  0
   15.8390   -7.4442   -1.4703 C   0  0  0  0  0  0  0  0  0  0  0  0
   16.0886   -8.4837   -1.6383 H   0  0  0  0  0  0  0  0  0  0  0  0
   16.7201   -6.5873   -0.8085 C   0  0  0  0  0  0  0  0  0  0  0  0
   17.6669   -6.9530   -0.4275 H   0  0  0  0  0  0  0  0  0  0  0  0
   16.3809   -5.2468   -0.6162 C   0  0  0  0  0  0  0  0  0  0  0  0
   17.0581   -4.5959   -0.0715 H   0  0  0  0  0  0  0  0  0  0  0  0
   15.1660   -4.7247   -1.0849 C   0  0  0  0  0  0  0  0  0  0  0  0
   14.8150   -3.2586   -0.7864 C   0  0  0  0  0  0  0  0  0  0  0  0
   15.3851   -2.2491   -1.7793 C   0  0  0  0  0  0  0  0  0  0  0  0
   15.9415   -2.6394   -3.0088 C   0  0  0  0  0  0  0  0  0  0  0  0
   16.0024   -3.6915   -3.2583 H   0  0  0  0  0  0  0  0  0  0  0  0
   16.4221   -1.6906   -3.9225 C   0  0  0  0  0  0  0  0  0  0  0  0
   16.8562   -2.0030   -4.8640 H   0  0  0  0  0  0  0  0  0  0  0  0
   16.3480   -0.3286   -3.6308 C   0  0  0  0  0  0  0  0  0  0  0  0
   16.7102    0.4103   -4.3430 H   0  0  0  0  0  0  0  0  0  0  0  0
   15.7944    0.0723   -2.4153 C   0  0  0  0  0  0  0  0  0  0  0  0
   15.7354    1.1265   -2.1789 H   0  0  0  0  0  0  0  0  0  0  0  0
   15.3167   -0.8721   -1.5001 C   0  0  0  0  0  0  0  0  0  0  0  0
   14.8939   -0.5281   -0.5600 H   0  0  0  0  0  0  0  0  0  0  0  0
   13.3026   -3.0383   -0.6035 C   0  0  0  0  0  0  0  0  0  0  0  0
   12.4348   -3.0914   -1.4715 O   0  0  0  0  0  0  0  0  0  0  0  0
   13.0257   -2.6784    0.7016 N   0  0  0  0  0  0  0  0  0  0  0  0
   11.7199   -2.3142    1.2618 C   0  0  0  0  0  0  0  0  0  0  0  0
   11.6967   -1.2618    1.5596 H   0  0  0  0  0  0  0  0  0  0  0  0
   11.5028   -2.9191    2.1458 H   0  0  0  0  0  0  0  0  0  0  0  0
   10.9131   -2.4735    0.5391 H   0  0  0  0  0  0  0  0  0  0  0  0
   14.2264   -2.6277    1.3649 C   0  0  0  0  0  0  0  0  0  0  0  0
   14.3946   -2.3320    2.6871 N   0  0  0  0  0  0  0  0  0  0  0  0
   13.5809   -2.1263    3.2642 H   0  0  0  0  0  0  0  0  0  0  0  0
   15.3310   -2.3534    3.0928 H   0  0  0  0  0  0  0  0  0  0  0  0
   15.2224   -2.9023    0.5923 N   0  0  0  0  0  4  0  0  0  0  0  0
   16.1908   -2.9096    0.9093 H   0  0  0  0  0  0  0  0  0  0  0  0
   14.3002   -5.6061   -1.7797 C   0  0  0  0  0  0  0  0  0  0  0  0
   13.3506   -5.2627   -2.1744 H   0  0  0  0  0  0  0  0  0  0  0  0
  1  2  1  0
  2  3  1  0
  3  4  1  0
  3  5  1  0
  3  6  1  0
  6  7  1  0
  6  8  1  0
  6  9  1  0
  9 10  1  0
  9 11  1  0
  9 12  1  0
 12 13  1  0
 12 14  1  0
 14 15  2  0
 15 16  1  0
 15 17  1  0
 17 18  1  0
 17 19  2  0
 19 20  1  0
 19 21  1  0
 21 22  1  0
 22 23  1  0
 23 24  2  0
 24 25  1  0
 24 26  1  0
 26 27  1  0
 26 28  2  0
 28 29  1  0
 28 30  1  0
 30 31  1  0
 30 32  2  0
 32 33  1  0
 22 34  1  0
 34 35  2  0
 34 36  1  0
 36 37  1  0
 37 38  1  0
 37 39  1  0
 37 40  1  0
 36 41  1  0
 41 42  1  0
 42 43  1  0
 42 44  1  0
 41 45  2  0
 45 46  1  0
 21 47  2  0
 47 48  1  0
 47 14  1  0
 45 22  1  0
 32 23  1  0
M  CHG  1  45   1
M  END
>  <score>  (466) 
4.87889

$$$$

     RDKit          3D

 46 48  0  0  0  0  0  0  0  0999 V2000
   13.2071  -10.4773   -5.2098 H   0  0  0  0  0  0  0  0  0  0  0  0
   13.5861   -9.6321   -4.9037 O   0  0  0  0  0  0  0  0  0  0  0  0
   13.3722   -9.5080   -3.5008 C   0  0  0  0  0  0  0  0  0  0  0  0
   13.7897  -10.3769   -2.9871 H   0  0  0  0  0  0  0  0  0  0  0  0
   12.3012   -9.4796   -3.2975 H   0  0  0  0  0  0  0  0  0  0  0  0
   14.0459   -8.2555   -2.9682 C   0  0  0  0  0  0  0  0  0  0  0  0
   13.6261   -7.3569   -3.4283 H   0  0  0  0  0  0  0  0  0  0  0  0
   15.1055   -8.2804   -3.2311 H   0  0  0  0  0  0  0  0  0  0  0  0
   13.9311   -8.1709   -1.4463 C   0  0  0  0  0  0  0  0  0  0  0  0
   12.9079   -7.9320   -1.1245 H   0  0  0  0  0  0  0  0  0  0  0  0
   14.2320   -9.1109   -0.9655 H   0  0  0  0  0  0  0  0  0  0  0  0
   14.8885   -7.0881   -1.0678 C   0  0  0  0  0  0  0  0  0  0  0  0
   16.2264   -7.4043   -0.8032 C   0  0  0  0  0  0  0  0  0  0  0  0
   16.5560   -8.4377   -0.8448 H   0  0  0  0  0  0  0  0  0  0  0  0
   17.1408   -6.3934   -0.5003 C   0  0  0  0  0  0  0  0  0  0  0  0
   18.1754   -6.6359   -0.2673 H   0  0  0  0  0  0  0  0  0  0  0  0
   16.7121   -5.0634   -0.4734 C   0  0  0  0  0  0  0  0  0  0  0  0
   17.4158   -4.2798   -0.2086 H   0  0  0  0  0  0  0  0  0  0  0  0
   15.3751   -4.7266   -0.7487 C   0  0  0  0  0  0  0  0  0  0  0  0
   14.9019   -3.2914   -0.5986 C   0  0  0  0  0  0  0  0  0  0  0  0
   15.4132   -2.3294   -1.6621 C   0  0  0  0  0  0  0  0  0  0  0  0
   15.9278   -2.7660   -2.8966 C   0  0  0  0  0  0  0  0  0  0  0  0
   15.9753   -3.8276   -3.1259 H   0  0  0  0  0  0  0  0  0  0  0  0
   16.3887   -1.8332   -3.8352 C   0  0  0  0  0  0  0  0  0  0  0  0
   16.7952   -2.1658   -4.7818 H   0  0  0  0  0  0  0  0  0  0  0  0
   16.3324   -0.4648   -3.5602 C   0  0  0  0  0  0  0  0  0  0  0  0
   16.7017    0.2560   -4.2831 H   0  0  0  0  0  0  0  0  0  0  0  0
   15.7981   -0.0240   -2.3494 C   0  0  0  0  0  0  0  0  0  0  0  0
   15.7422    1.0342   -2.1238 H   0  0  0  0  0  0  0  0  0  0  0  0
   15.3367   -0.9493   -1.4133 C   0  0  0  0  0  0  0  0  0  0  0  0
   14.9193   -0.6030   -0.4709 H   0  0  0  0  0  0  0  0  0  0  0  0
   13.3749   -3.1447   -0.4264 C   0  0  0  0  0  0  0  0  0  0  0  0
   12.5042   -3.4189   -1.2513 O   0  0  0  0  0  0  0  0  0  0  0  0
   13.1037   -2.6279    0.8260 N   0  0  0  0  0  0  0  0  0  0  0  0
   11.7922   -2.2764    1.3696 C   0  0  0  0  0  0  0  0  0  0  0  0
   11.5741   -2.8644    2.2678 H   0  0  0  0  0  0  0  0  0  0  0  0
   11.7575   -1.2135    1.6328 H   0  0  0  0  0  0  0  0  0  0  0  0
   11.0002   -2.4685    0.6367 H   0  0  0  0  0  0  0  0  0  0  0  0
   14.3117   -2.4986    1.4771 C   0  0  0  0  0  0  0  0  0  0  0  0
   14.4979   -2.0808    2.7573 N   0  0  0  0  0  0  0  0  0  0  0  0
   15.4241   -2.2235    3.1580 H   0  0  0  0  0  0  0  0  0  0  0  0
   13.6888   -2.0584    3.3742 H   0  0  0  0  0  0  0  0  0  0  0  0
   15.3121   -2.8458    0.7441 N   0  0  0  0  0  4  0  0  0  0  0  0
   16.2743   -2.9150    1.0845 H   0  0  0  0  0  0  0  0  0  0  0  0
   14.4770   -5.7532   -1.0779 C   0  0  0  0  0  0  0  0  0  0  0  0
   13.4497   -5.5235   -1.3437 H   0  0  0  0  0  0  0  0  0  0  0  0
  1  2  1  0
  2  3  1  0
  3  4  1  0
  3  5  1  0
  3  6  1  0
  6  7  1  0
  6  8  1  0
  6  9  1  0
  9 10  1  0
  9 11  1  0
  9 12  1  0
 12 13  2  0
 13 14  1  0
 13 15  1  0
 15 16  1  0
 15 17  2  0
 17 18  1  0
 17 19  1  0
 19 20  1  0
 20 21  1  0
 21 22  2  0
 22 23  1  0
 22 24  1  0
 24 25  1  0
 24 26  2  0
 26 27  1  0
 26 28  1  0
 28 29  1  0
 28 30  2  0
 30 31  1  0
 20 32  1  0
 32 33  2  0
 32 34  1  0
 34 35  1  0
 35 36  1  0
 35 37  1  0
 35 38  1  0
 34 39  1  0
 39 40  1  0
 40 41  1  0
 40 42  1  0
 39 43  2  0
 43 44  1  0
 19 45  2  0
 45 46  1  0
 45 12  1  0
 43 20  1  0
 30 21  1  0
M  CHG  1  43   1
M  END
>  <score>  (467) 
4.87372

$$$$

     RDKit          3D

 38 40  0  0  0  0  0  0  0  0999 V2000
   14.0554   -8.7888   -2.8858 H   0  0  0  0  0  0  0  0  0  0  0  0
   13.7146   -7.8746   -2.4050 C   0  0  0  0  0  0  0  0  0  0  0  0
   12.5284   -7.7884   -2.1080 O   0  0  0  0  0  0  0  0  0  0  0  0
   14.6988   -6.9145   -1.8975 C   0  0  0  0  0  0  0  0  0  0  0  0
   15.9459   -7.3828   -1.4591 C   0  0  0  0  0  0  0  0  0  0  0  0
   16.2337   -8.4228   -1.6001 H   0  0  0  0  0  0  0  0  0  0  0  0
   16.8217   -6.5242   -0.7974 C   0  0  0  0  0  0  0  0  0  0  0  0
   17.7536   -6.9157   -0.3946 H   0  0  0  0  0  0  0  0  0  0  0  0
   16.4747   -5.1849   -0.6030 C   0  0  0  0  0  0  0  0  0  0  0  0
   17.1333   -4.5600   -0.0100 H   0  0  0  0  0  0  0  0  0  0  0  0
   15.2511   -4.6767   -1.0697 C   0  0  0  0  0  0  0  0  0  0  0  0
   14.8485   -3.2349   -0.7677 C   0  0  0  0  0  0  0  0  0  0  0  0
   15.4018   -2.2314   -1.7734 C   0  0  0  0  0  0  0  0  0  0  0  0
   15.9453   -2.6385   -3.0068 C   0  0  0  0  0  0  0  0  0  0  0  0
   16.0008   -3.6964   -3.2490 H   0  0  0  0  0  0  0  0  0  0  0  0
   16.4206   -1.6917   -3.9238 C   0  0  0  0  0  0  0  0  0  0  0  0
   16.8487   -2.0123   -4.8682 H   0  0  0  0  0  0  0  0  0  0  0  0
   16.3487   -0.3281   -3.6256 C   0  0  0  0  0  0  0  0  0  0  0  0
   16.7172    0.4043   -4.3380 H   0  0  0  0  0  0  0  0  0  0  0  0
   15.7962    0.0908   -2.4121 C   0  0  0  0  0  0  0  0  0  0  0  0
   15.7347    1.1482   -2.1747 H   0  0  0  0  0  0  0  0  0  0  0  0
   15.3227   -0.8552   -1.4976 C   0  0  0  0  0  0  0  0  0  0  0  0
   14.8929   -0.5217   -0.5567 H   0  0  0  0  0  0  0  0  0  0  0  0
   13.3226   -3.0463   -0.5970 C   0  0  0  0  0  0  0  0  0  0  0  0
   12.4607   -3.1235   -1.4700 O   0  0  0  0  0  0  0  0  0  0  0  0
   13.0385   -2.6811    0.7073 N   0  0  0  0  0  0  0  0  0  0  0  0
   11.7316   -2.3174    1.2666 C   0  0  0  0  0  0  0  0  0  0  0  0
   10.9280   -2.4795    0.5408 H   0  0  0  0  0  0  0  0  0  0  0  0
   11.5053   -2.9194    2.1534 H   0  0  0  0  0  0  0  0  0  0  0  0
   11.7117   -1.2616    1.5581 H   0  0  0  0  0  0  0  0  0  0  0  0
   14.2415   -2.6229    1.3739 C   0  0  0  0  0  0  0  0  0  0  0  0
   14.4070   -2.3120    2.6908 N   0  0  0  0  0  0  0  0  0  0  0  0
   13.5922   -2.1253    3.2716 H   0  0  0  0  0  0  0  0  0  0  0  0
   15.3423   -2.3346    3.0950 H   0  0  0  0  0  0  0  0  0  0  0  0
   15.2512   -2.8996    0.6153 N   0  0  0  0  0  4  0  0  0  0  0  0
   16.2171   -2.9302    0.9429 H   0  0  0  0  0  0  0  0  0  0  0  0
   14.3802   -5.5478   -1.7506 C   0  0  0  0  0  0  0  0  0  0  0  0
   13.4523   -5.1515   -2.1599 H   0  0  0  0  0  0  0  0  0  0  0  0
  1  2  1  0
  2  3  2  0
  2  4  1  0
  4  5  2  0
  5  6  1  0
  5  7  1  0
  7  8  1  0
  7  9  2  0
  9 10  1  0
  9 11  1  0
 11 12  1  0
 12 13  1  0
 13 14  2  0
 14 15  1  0
 14 16  1  0
 16 17  1  0
 16 18  2  0
 18 19  1  0
 18 20  1  0
 20 21  1  0
 20 22  2  0
 22 23  1  0
 12 24  1  0
 24 25  2  0
 24 26  1  0
 26 27  1  0
 27 28  1  0
 27 29  1  0
 27 30  1  0
 26 31  1  0
 31 32  1  0
 32 33  1  0
 32 34  1  0
 31 35  2  0
 35 36  1  0
 11 37  2  0
 37 38  1  0
 37  4  1  0
 35 12  1  0
 22 13  1  0
M  CHG  1  35   1
M  END
>  <score>  (468) 
4.87123

$$$$

     RDKit          3D

 46 48  0  0  0  0  0  0  0  0999 V2000
   16.0912   -8.4308   -1.6389 H   0  0  0  0  0  0  0  0  0  0  0  0
   15.8573   -7.3810   -1.4918 C   0  0  0  0  0  0  0  0  0  0  0  0
   16.7528   -6.5545   -0.8047 C   0  0  0  0  0  0  0  0  0  0  0  0
   17.6838   -6.9533   -0.4143 H   0  0  0  0  0  0  0  0  0  0  0  0
   16.4352   -5.2102   -0.5929 C   0  0  0  0  0  0  0  0  0  0  0  0
   17.1197   -4.5663   -0.0466 H   0  0  0  0  0  0  0  0  0  0  0  0
   15.2162   -4.6859   -1.0443 C   0  0  0  0  0  0  0  0  0  0  0  0
   14.8413   -3.2488   -0.7412 C   0  0  0  0  0  0  0  0  0  0  0  0
   15.3881   -2.2544   -1.7537 C   0  0  0  0  0  0  0  0  0  0  0  0
   15.9412   -2.6580   -2.9791 C   0  0  0  0  0  0  0  0  0  0  0  0
   16.0056   -3.7158   -3.2118 H   0  0  0  0  0  0  0  0  0  0  0  0
   16.4087   -1.7109   -3.8998 C   0  0  0  0  0  0  0  0  0  0  0  0
   16.8427   -2.0297   -4.8416 H   0  0  0  0  0  0  0  0  0  0  0  0
   16.3229   -0.3456   -3.6054 C   0  0  0  0  0  0  0  0  0  0  0  0
   16.7024    0.3834   -4.3172 H   0  0  0  0  0  0  0  0  0  0  0  0
   15.7524    0.0784   -2.3956 C   0  0  0  0  0  0  0  0  0  0  0  0
   15.6164    1.5422   -2.0527 C   0  0  0  0  0  0  0  0  0  0  0  0
   16.3222    2.1308   -2.6483 H   0  0  0  0  0  0  0  0  0  0  0  0
   15.8495    1.6786   -0.9900 H   0  0  0  0  0  0  0  0  0  0  0  0
   14.2742    1.9863   -2.3051 O   0  0  0  0  0  0  0  0  0  0  0  0
   14.0676    3.3938   -2.1214 C   0  0  0  0  0  0  0  0  0  0  0  0
   12.9907    3.5797   -2.0723 H   0  0  0  0  0  0  0  0  0  0  0  0
   14.5441    3.7257   -1.1857 H   0  0  0  0  0  0  0  0  0  0  0  0
   14.5973    4.1924   -3.3093 C   0  0  0  0  0  0  0  0  0  0  0  0
   15.6921    4.1584   -3.3240 H   0  0  0  0  0  0  0  0  0  0  0  0
   14.2103    3.7419   -4.2323 H   0  0  0  0  0  0  0  0  0  0  0  0
   14.2675    5.2434   -3.2635 H   0  0  0  0  0  0  0  0  0  0  0  0
   15.2916   -0.8810   -1.4849 C   0  0  0  0  0  0  0  0  0  0  0  0
   14.8515   -0.5508   -0.5482 H   0  0  0  0  0  0  0  0  0  0  0  0
   13.3215   -3.0583   -0.5715 C   0  0  0  0  0  0  0  0  0  0  0  0
   12.4562   -3.2085   -1.4340 O   0  0  0  0  0  0  0  0  0  0  0  0
   13.0475   -2.6874    0.7302 N   0  0  0  0  0  0  0  0  0  0  0  0
   11.7451   -2.3152    1.2855 C   0  0  0  0  0  0  0  0  0  0  0  0
   10.9421   -2.4788    0.5565 H   0  0  0  0  0  0  0  0  0  0  0  0
   11.5142   -2.9095    2.1777 H   0  0  0  0  0  0  0  0  0  0  0  0
   11.7402   -1.2556    1.5646 H   0  0  0  0  0  0  0  0  0  0  0  0
   14.2582   -2.6049    1.3856 C   0  0  0  0  0  0  0  0  0  0  0  0
   14.4378   -2.2462    2.6834 N   0  0  0  0  0  0  0  0  0  0  0  0
   13.6242   -2.1181    3.2830 H   0  0  0  0  0  0  0  0  0  0  0  0
   15.3741   -2.3005    3.0850 H   0  0  0  0  0  0  0  0  0  0  0  0
   15.2624   -2.9104    0.6315 N   0  0  0  0  0  4  0  0  0  0  0  0
   16.2205   -3.0068    0.9734 H   0  0  0  0  0  0  0  0  0  0  0  0
   14.3310   -5.5177   -1.7468 C   0  0  0  0  0  0  0  0  0  0  0  0
   13.3810   -5.1209   -2.0928 H   0  0  0  0  0  0  0  0  0  0  0  0
   14.6504   -6.8608   -1.9699 C   0  0  0  0  0  0  0  0  0  0  0  0
   13.9495   -7.5022   -2.4945 H   0  0  0  0  0  0  0  0  0  0  0  0
  1  2  1  0
  2  3  2  0
  3  4  1  0
  3  5  1  0
  5  6  1  0
  5  7  2  0
  7  8  1  0
  8  9  1  0
  9 10  2  0
 10 11  1  0
 10 12  1  0
 12 13  1  0
 12 14  2  0
 14 15  1  0
 14 16  1  0
 16 17  1  0
 17 18  1  0
 17 19  1  0
 17 20  1  0
 20 21  1  0
 21 22  1  0
 21 23  1  0
 21 24  1  0
 24 25  1  0
 24 26  1  0
 24 27  1  0
 16 28  2  0
 28 29  1  0
  8 30  1  0
 30 31  2  0
 30 32  1  0
 32 33  1  0
 33 34  1  0
 33 35  1  0
 33 36  1  0
 32 37  1  0
 37 38  1  0
 38 39  1  0
 38 40  1  0
 37 41  2  0
 41 42  1  0
  7 43  1  0
 43 44  1  0
 43 45  2  0
 45 46  1  0
 45  2  1  0
 41  8  1  0
 28  9  1  0
M  CHG  1  41   1
M  END
>  <score>  (469) 
4.87088

$$$$

     RDKit          3D

 43 46  0  0  0  0  0  0  0  0999 V2000
   12.9557  -10.7922   -3.5517 H   0  0  0  0  0  0  0  0  0  0  0  0
   13.0018   -9.8467   -3.0133 C   0  0  0  0  0  0  0  0  0  0  0  0
   14.0981   -9.1771   -2.7396 N   0  0  0  0  0  0  0  0  0  0  0  0
   13.7264   -8.0187   -2.1046 N   0  0  0  0  0  0  0  0  0  0  0  0
   14.6396   -7.0512   -1.6356 C   0  0  0  0  0  0  0  0  0  0  0  0
   15.9528   -7.4424   -1.3216 C   0  0  0  0  0  0  0  0  0  0  0  0
   16.2396   -8.4843   -1.4317 H   0  0  0  0  0  0  0  0  0  0  0  0
   16.8774   -6.5215   -0.8289 C   0  0  0  0  0  0  0  0  0  0  0  0
   17.8728   -6.8425   -0.5393 H   0  0  0  0  0  0  0  0  0  0  0  0
   16.5151   -5.1861   -0.6768 C   0  0  0  0  0  0  0  0  0  0  0  0
   17.2403   -4.4741   -0.2948 H   0  0  0  0  0  0  0  0  0  0  0  0
   15.2184   -4.7513   -0.9767 C   0  0  0  0  0  0  0  0  0  0  0  0
   14.8561   -3.2909   -0.7167 C   0  0  0  0  0  0  0  0  0  0  0  0
   15.3585   -2.3064   -1.7699 C   0  0  0  0  0  0  0  0  0  0  0  0
   15.9044   -2.7082   -3.0038 C   0  0  0  0  0  0  0  0  0  0  0  0
   15.9581   -3.7617   -3.2598 H   0  0  0  0  0  0  0  0  0  0  0  0
   16.3994   -1.7571   -3.9102 C   0  0  0  0  0  0  0  0  0  0  0  0
   16.8368   -2.0679   -4.8525 H   0  0  0  0  0  0  0  0  0  0  0  0
   16.3447   -0.3950   -3.6056 C   0  0  0  0  0  0  0  0  0  0  0  0
   16.7430    0.3406   -4.3010 H   0  0  0  0  0  0  0  0  0  0  0  0
   15.7773    0.0160   -2.3984 C   0  0  0  0  0  0  0  0  0  0  0  0
   15.7304    1.0713   -2.1514 H   0  0  0  0  0  0  0  0  0  0  0  0
   15.2767   -0.9292   -1.4985 C   0  0  0  0  0  0  0  0  0  0  0  0
   14.8347   -0.5905   -0.5649 H   0  0  0  0  0  0  0  0  0  0  0  0
   13.3508   -3.0988   -0.4670 C   0  0  0  0  0  0  0  0  0  0  0  0
   12.4334   -3.3350   -1.2470 O   0  0  0  0  0  0  0  0  0  0  0  0
   13.1527   -2.6408    0.8170 N   0  0  0  0  0  0  0  0  0  0  0  0
   11.8817   -2.2521    1.4290 C   0  0  0  0  0  0  0  0  0  0  0  0
   11.0447   -2.7743    0.9542 H   0  0  0  0  0  0  0  0  0  0  0  0
   11.8869   -2.5131    2.4934 H   0  0  0  0  0  0  0  0  0  0  0  0
   11.7251   -1.1721    1.3290 H   0  0  0  0  0  0  0  0  0  0  0  0
   14.3763   -2.5339    1.4164 C   0  0  0  0  0  0  0  0  0  0  0  0
   14.5361   -2.0890    2.7012 N   0  0  0  0  0  0  0  0  0  0  0  0
   15.4465   -2.2154    3.1318 H   0  0  0  0  0  0  0  0  0  0  0  0
   13.7124   -2.1164    3.2985 H   0  0  0  0  0  0  0  0  0  0  0  0
   15.3396   -2.8824    0.6252 N   0  0  0  0  0  4  0  0  0  0  0  0
   16.3283   -2.7784    0.8577 H   0  0  0  0  0  0  0  0  0  0  0  0
   14.2803   -5.6967   -1.4509 C   0  0  0  0  0  0  0  0  0  0  0  0
   13.2639   -5.3809   -1.6752 H   0  0  0  0  0  0  0  0  0  0  0  0
   12.3409   -7.9792   -1.9573 C   0  0  0  0  0  0  0  0  0  0  0  0
   11.7675   -7.1867   -1.4814 H   0  0  0  0  0  0  0  0  0  0  0  0
   11.8552   -9.1362   -2.4960 C   0  0  0  0  0  0  0  0  0  0  0  0
   10.8218   -9.4693   -2.5502 H   0  0  0  0  0  0  0  0  0  0  0  0
  1  2  1  0
  2  3  2  0
  3  4  1  0
  4  5  1  0
  5  6  2  0
  6  7  1  0
  6  8  1  0
  8  9  1  0
  8 10  2  0
 10 11  1  0
 10 12  1  0
 12 13  1  0
 13 14  1  0
 14 15  2  0
 15 16  1  0
 15 17  1  0
 17 18  1  0
 17 19  2  0
 19 20  1  0
 19 21  1  0
 21 22  1  0
 21 23  2  0
 23 24  1  0
 13 25  1  0
 25 26  2  0
 25 27  1  0
 27 28  1  0
 28 29  1  0
 28 30  1  0
 28 31  1  0
 27 32  1  0
 32 33  1  0
 33 34  1  0
 33 35  1  0
 32 36  2  0
 36 37  1  0
 12 38  2  0
 38 39  1  0
  4 40  1  0
 40 41  1  0
 40 42  2  0
 42 43  1  0
 42  2  1  0
 38  5  1  0
 36 13  1  0
 23 14  1  0
M  CHG  1  36   1
M  END
>  <score>  (470) 
4.86415

$$$$

     RDKit          3D

 53 56  0  0  0  0  0  0  0  0999 V2000
    7.5468   -8.7895   -3.7495 H   0  0  0  0  0  0  0  0  0  0  0  0
    8.4791   -8.7216   -3.1948 C   0  0  0  0  0  0  0  0  0  0  0  0
    9.2138   -9.8801   -2.9134 C   0  0  0  0  0  0  0  0  0  0  0  0
    8.8450  -10.8531   -3.2308 H   0  0  0  0  0  0  0  0  0  0  0  0
   10.4103   -9.7865   -2.1847 C   0  0  0  0  0  0  0  0  0  0  0  0
   10.9622  -10.6889   -1.9430 H   0  0  0  0  0  0  0  0  0  0  0  0
   10.8777   -8.5429   -1.7258 C   0  0  0  0  0  0  0  0  0  0  0  0
   12.1473   -8.4339   -0.9118 C   0  0  0  0  0  0  0  0  0  0  0  0
   12.0774   -9.0817   -0.0327 H   0  0  0  0  0  0  0  0  0  0  0  0
   12.2532   -7.4073   -0.5431 H   0  0  0  0  0  0  0  0  0  0  0  0
   13.2955   -8.8068   -1.6945 O   0  0  0  0  0  0  0  0  0  0  0  0
   13.8048   -7.7405   -2.5088 C   0  0  0  0  0  0  0  0  0  0  0  0
   12.9813   -7.1014   -2.8330 H   0  0  0  0  0  0  0  0  0  0  0  0
   14.2736   -8.1541   -3.4035 H   0  0  0  0  0  0  0  0  0  0  0  0
   14.7925   -6.8778   -1.7754 C   0  0  0  0  0  0  0  0  0  0  0  0
   16.0401   -7.3554   -1.3465 C   0  0  0  0  0  0  0  0  0  0  0  0
   16.3145   -8.3917   -1.5199 H   0  0  0  0  0  0  0  0  0  0  0  0
   16.9323   -6.4970   -0.6926 C   0  0  0  0  0  0  0  0  0  0  0  0
   17.8993   -6.8608   -0.3560 H   0  0  0  0  0  0  0  0  0  0  0  0
   16.5747   -5.1633   -0.4553 C   0  0  0  0  0  0  0  0  0  0  0  0
   17.2647   -4.5026    0.0622 H   0  0  0  0  0  0  0  0  0  0  0  0
   15.3228   -4.6763   -0.8710 C   0  0  0  0  0  0  0  0  0  0  0  0
   14.8882   -3.2387   -0.6148 C   0  0  0  0  0  0  0  0  0  0  0  0
   15.4459   -2.2606   -1.6344 C   0  0  0  0  0  0  0  0  0  0  0  0
   15.9535   -2.6920   -2.8722 C   0  0  0  0  0  0  0  0  0  0  0  0
   15.9942   -3.7537   -3.1006 H   0  0  0  0  0  0  0  0  0  0  0  0
   16.3990   -1.7630   -3.8182 C   0  0  0  0  0  0  0  0  0  0  0  0
   16.7980   -2.1001   -4.7665 H   0  0  0  0  0  0  0  0  0  0  0  0
   16.3322   -0.3948   -3.5460 C   0  0  0  0  0  0  0  0  0  0  0  0
   16.6804    0.3241   -4.2814 H   0  0  0  0  0  0  0  0  0  0  0  0
   15.8064    0.0448   -2.3304 C   0  0  0  0  0  0  0  0  0  0  0  0
   15.7421    1.1057   -2.1139 H   0  0  0  0  0  0  0  0  0  0  0  0
   15.3601   -0.8806   -1.3843 C   0  0  0  0  0  0  0  0  0  0  0  0
   14.9343   -0.5287   -0.4476 H   0  0  0  0  0  0  0  0  0  0  0  0
   13.3550   -3.0517   -0.5256 C   0  0  0  0  0  0  0  0  0  0  0  0
   12.5235   -3.3563   -1.3760 O   0  0  0  0  0  0  0  0  0  0  0  0
   13.0047   -2.5020    0.6939 N   0  0  0  0  0  0  0  0  0  0  0  0
   11.6326   -2.2697    1.1764 C   0  0  0  0  0  0  0  0  0  0  0  0
   11.3993   -2.9469    2.0079 H   0  0  0  0  0  0  0  0  0  0  0  0
   10.9012   -2.4536    0.3745 H   0  0  0  0  0  0  0  0  0  0  0  0
   11.4918   -1.2347    1.5185 H   0  0  0  0  0  0  0  0  0  0  0  0
   14.1736   -2.4536    1.4262 C   0  0  0  0  0  0  0  0  0  0  0  0
   14.3302   -2.0542    2.7084 N   0  0  0  0  0  0  0  0  0  0  0  0
   15.2288   -2.2382    3.1427 H   0  0  0  0  0  0  0  0  0  0  0  0
   13.4983   -1.9417    3.2858 H   0  0  0  0  0  0  0  0  0  0  0  0
   15.2142   -2.8395    0.7627 N   0  0  0  0  0  4  0  0  0  0  0  0
   16.1639   -2.8348    1.1358 H   0  0  0  0  0  0  0  0  0  0  0  0
   14.4561   -5.5415   -1.5456 C   0  0  0  0  0  0  0  0  0  0  0  0
   13.4972   -5.1701   -1.8971 H   0  0  0  0  0  0  0  0  0  0  0  0
   10.1294   -7.3961   -2.0105 C   0  0  0  0  0  0  0  0  0  0  0  0
   10.4639   -6.4279   -1.6550 H   0  0  0  0  0  0  0  0  0  0  0  0
    8.9521   -7.4855   -2.7481 C   0  0  0  0  0  0  0  0  0  0  0  0
    8.4135   -6.5745   -2.9615 H   0  0  0  0  0  0  0  0  0  0  0  0
  1  2  1  0
  2  3  2  0
  3  4  1  0
  3  5  1  0
  5  6  1  0
  5  7  2  0
  7  8  1  0
  8  9  1  0
  8 10  1  0
  8 11  1  0
 11 12  1  0
 12 13  1  0
 12 14  1  0
 12 15  1  0
 15 16  2  0
 16 17  1  0
 16 18  1  0
 18 19  1  0
 18 20  2  0
 20 21  1  0
 20 22  1  0
 22 23  1  0
 23 24  1  0
 24 25  2  0
 25 26  1  0
 25 27  1  0
 27 28  1  0
 27 29  2  0
 29 30  1  0
 29 31  1  0
 31 32  1  0
 31 33  2  0
 33 34  1  0
 23 35  1  0
 35 36  2  0
 35 37  1  0
 37 38  1  0
 38 39  1  0
 38 40  1  0
 38 41  1  0
 37 42  1  0
 42 43  1  0
 43 44  1  0
 43 45  1  0
 42 46  2  0
 46 47  1  0
 22 48  2  0
 48 49  1  0
  7 50  1  0
 50 51  1  0
 50 52  2  0
 52 53  1  0
 52  2  1  0
 48 15  1  0
 46 23  1  0
 33 24  1  0
M  CHG  1  46   1
M  END
>  <score>  (471) 
4.86402

$$$$

     RDKit          3D

 44 47  0  0  0  0  0  0  0  0999 V2000
   13.4225  -10.7601   -3.7475 H   0  0  0  0  0  0  0  0  0  0  0  0
   13.0872   -9.8907   -3.1888 C   0  0  0  0  0  0  0  0  0  0  0  0
   11.8140   -9.8728   -2.7748 N   0  0  0  0  0  0  0  0  0  0  0  0
   11.3992   -8.8262   -2.0673 C   0  0  0  0  0  0  0  0  0  0  0  0
   10.3866   -8.8166   -1.6721 H   0  0  0  0  0  0  0  0  0  0  0  0
   12.2672   -7.8052   -1.7432 C   0  0  0  0  0  0  0  0  0  0  0  0
   11.9347   -7.0025   -1.1020 H   0  0  0  0  0  0  0  0  0  0  0  0
   13.5843   -7.8869   -2.1681 C   0  0  0  0  0  0  0  0  0  0  0  0
   14.5802   -6.9167   -1.6854 C   0  0  0  0  0  0  0  0  0  0  0  0
   15.8727   -7.3554   -1.3411 C   0  0  0  0  0  0  0  0  0  0  0  0
   16.1428   -8.4023   -1.4603 H   0  0  0  0  0  0  0  0  0  0  0  0
   16.8096   -6.4672   -0.8028 C   0  0  0  0  0  0  0  0  0  0  0  0
   17.7982   -6.8192   -0.5176 H   0  0  0  0  0  0  0  0  0  0  0  0
   16.4742   -5.1261   -0.6098 C   0  0  0  0  0  0  0  0  0  0  0  0
   17.2141   -4.4468   -0.1897 H   0  0  0  0  0  0  0  0  0  0  0  0
   15.1985   -4.6534   -0.9490 C   0  0  0  0  0  0  0  0  0  0  0  0
   14.8500   -3.1919   -0.6889 C   0  0  0  0  0  0  0  0  0  0  0  0
   15.4022   -2.2159   -1.7232 C   0  0  0  0  0  0  0  0  0  0  0  0
   15.9339   -2.6447   -2.9538 C   0  0  0  0  0  0  0  0  0  0  0  0
   15.9783   -3.7051   -3.1828 H   0  0  0  0  0  0  0  0  0  0  0  0
   16.4121   -1.7178   -3.8905 C   0  0  0  0  0  0  0  0  0  0  0  0
   16.8281   -2.0581   -4.8341 H   0  0  0  0  0  0  0  0  0  0  0  0
   16.3562   -0.3482   -3.6140 C   0  0  0  0  0  0  0  0  0  0  0  0
   16.7295    0.3690   -4.3399 H   0  0  0  0  0  0  0  0  0  0  0  0
   15.8111    0.0949   -2.4051 C   0  0  0  0  0  0  0  0  0  0  0  0
   15.7588    1.1583   -2.1874 H   0  0  0  0  0  0  0  0  0  0  0  0
   15.3337   -0.8325   -1.4726 C   0  0  0  0  0  0  0  0  0  0  0  0
   14.9091   -0.4731   -0.5385 H   0  0  0  0  0  0  0  0  0  0  0  0
   13.3353   -2.9797   -0.5205 C   0  0  0  0  0  0  0  0  0  0  0  0
   12.4604   -3.1532   -1.3634 O   0  0  0  0  0  0  0  0  0  0  0  0
   13.0671   -2.5868    0.7769 N   0  0  0  0  0  0  0  0  0  0  0  0
   11.7502   -2.2778    1.3302 C   0  0  0  0  0  0  0  0  0  0  0  0
   11.5433   -2.8946    2.2128 H   0  0  0  0  0  0  0  0  0  0  0  0
   10.9635   -2.4710    0.5917 H   0  0  0  0  0  0  0  0  0  0  0  0
   11.6925   -1.2218    1.6183 H   0  0  0  0  0  0  0  0  0  0  0  0
   14.2723   -2.5312    1.4423 C   0  0  0  0  0  0  0  0  0  0  0  0
   14.4500   -2.2363    2.7653 N   0  0  0  0  0  0  0  0  0  0  0  0
   15.3909   -2.2619    3.1556 H   0  0  0  0  0  0  0  0  0  0  0  0
   13.6440   -2.0950    3.3700 H   0  0  0  0  0  0  0  0  0  0  0  0
   15.2720   -2.8193    0.6807 N   0  0  0  0  0  4  0  0  0  0  0  0
   16.2312   -2.9164    1.0245 H   0  0  0  0  0  0  0  0  0  0  0  0
   14.2607   -5.5568   -1.4904 C   0  0  0  0  0  0  0  0  0  0  0  0
   13.2717   -5.1890   -1.7488 H   0  0  0  0  0  0  0  0  0  0  0  0
   13.9725   -8.9298   -2.9043 N   0  0  0  0  0  0  0  0  0  0  0  0
  1  2  1  0
  2  3  2  0
  3  4  1  0
  4  5  1  0
  4  6  2  0
  6  7  1  0
  6  8  1  0
  8  9  1  0
  9 10  2  0
 10 11  1  0
 10 12  1  0
 12 13  1  0
 12 14  2  0
 14 15  1  0
 14 16  1  0
 16 17  1  0
 17 18  1  0
 18 19  2  0
 19 20  1  0
 19 21  1  0
 21 22  1  0
 21 23  2  0
 23 24  1  0
 23 25  1  0
 25 26  1  0
 25 27  2  0
 27 28  1  0
 17 29  1  0
 29 30  2  0
 29 31  1  0
 31 32  1  0
 32 33  1  0
 32 34  1  0
 32 35  1  0
 31 36  1  0
 36 37  1  0
 37 38  1  0
 37 39  1  0
 36 40  2  0
 40 41  1  0
 16 42  2  0
 42 43  1  0
  8 44  2  0
 44  2  1  0
 42  9  1  0
 40 17  1  0
 27 18  1  0
M  CHG  1  40   1
M  END
>  <score>  (472) 
4.85752

$$$$

     RDKit          3D

 43 46  0  0  0  0  0  0  0  0999 V2000
   13.1207  -10.8977   -3.5457 H   0  0  0  0  0  0  0  0  0  0  0  0
   13.0591   -9.9154   -3.0880 C   0  0  0  0  0  0  0  0  0  0  0  0
   14.1496   -9.1151   -2.8018 N   0  0  0  0  0  0  0  0  0  0  0  0
   13.7242   -8.0174   -2.2281 C   0  0  0  0  0  0  0  0  0  0  0  0
   14.6503   -6.9897   -1.6987 C   0  0  0  0  0  0  0  0  0  0  0  0
   15.9469   -7.3915   -1.3168 C   0  0  0  0  0  0  0  0  0  0  0  0
   16.2652   -8.4221   -1.4505 H   0  0  0  0  0  0  0  0  0  0  0  0
   16.8504   -6.4834   -0.7641 C   0  0  0  0  0  0  0  0  0  0  0  0
   17.8469   -6.7973   -0.4636 H   0  0  0  0  0  0  0  0  0  0  0  0
   16.4744   -5.1541   -0.5868 C   0  0  0  0  0  0  0  0  0  0  0  0
   17.1717   -4.4615   -0.1213 H   0  0  0  0  0  0  0  0  0  0  0  0
   15.2055   -4.7064   -0.9829 C   0  0  0  0  0  0  0  0  0  0  0  0
   14.8274   -3.2511   -0.7406 C   0  0  0  0  0  0  0  0  0  0  0  0
   15.3869   -2.2594   -1.7560 C   0  0  0  0  0  0  0  0  0  0  0  0
   15.9347   -2.6634   -2.9865 C   0  0  0  0  0  0  0  0  0  0  0  0
   15.9899   -3.7173   -3.2390 H   0  0  0  0  0  0  0  0  0  0  0  0
   16.4123   -1.7160   -3.9023 C   0  0  0  0  0  0  0  0  0  0  0  0
   16.8330   -2.0382   -4.8470 H   0  0  0  0  0  0  0  0  0  0  0  0
   16.3491   -0.3526   -3.6095 C   0  0  0  0  0  0  0  0  0  0  0  0
   16.7261    0.3782   -4.3213 H   0  0  0  0  0  0  0  0  0  0  0  0
   15.7967    0.0622   -2.3973 C   0  0  0  0  0  0  0  0  0  0  0  0
   15.7392    1.1192   -2.1629 H   0  0  0  0  0  0  0  0  0  0  0  0
   15.3158   -0.8809   -1.4837 C   0  0  0  0  0  0  0  0  0  0  0  0
   14.8832   -0.5363   -0.5485 H   0  0  0  0  0  0  0  0  0  0  0  0
   13.3109   -3.0521   -0.5693 C   0  0  0  0  0  0  0  0  0  0  0  0
   12.4446   -3.2003   -1.4280 O   0  0  0  0  0  0  0  0  0  0  0  0
   13.0462   -2.6706    0.7309 N   0  0  0  0  0  0  0  0  0  0  0  0
   11.7451   -2.3096    1.2873 C   0  0  0  0  0  0  0  0  0  0  0  0
   11.5283   -2.9121    2.1765 H   0  0  0  0  0  0  0  0  0  0  0  0
   11.7358   -1.2510    1.5690 H   0  0  0  0  0  0  0  0  0  0  0  0
   10.9456   -2.4779    0.5554 H   0  0  0  0  0  0  0  0  0  0  0  0
   14.2536   -2.5937    1.3887 C   0  0  0  0  0  0  0  0  0  0  0  0
   14.4375   -2.2577    2.6953 N   0  0  0  0  0  0  0  0  0  0  0  0
   15.3741   -2.3050    3.0945 H   0  0  0  0  0  0  0  0  0  0  0  0
   13.6268   -2.1146    3.2952 H   0  0  0  0  0  0  0  0  0  0  0  0
   15.2517   -2.8900    0.6252 N   0  0  0  0  0  4  0  0  0  0  0  0
   16.2131   -2.9778    0.9564 H   0  0  0  0  0  0  0  0  0  0  0  0
   14.3010   -5.6313   -1.5509 C   0  0  0  0  0  0  0  0  0  0  0  0
   13.3296   -5.2838   -1.8928 H   0  0  0  0  0  0  0  0  0  0  0  0
   12.3385   -8.0947   -2.1396 N   0  0  0  0  0  0  0  0  0  0  0  0
   11.7399   -7.3914   -1.7098 H   0  0  0  0  0  0  0  0  0  0  0  0
   11.9146   -9.3030   -2.6781 C   0  0  0  0  0  0  0  0  0  0  0  0
   10.9131   -9.7097   -2.7890 H   0  0  0  0  0  0  0  0  0  0  0  0
  1  2  1  0
  2  3  1  0
  3  4  2  0
  4  5  1  0
  5  6  2  0
  6  7  1  0
  6  8  1  0
  8  9  1  0
  8 10  2  0
 10 11  1  0
 10 12  1  0
 12 13  1  0
 13 14  1  0
 14 15  2  0
 15 16  1  0
 15 17  1  0
 17 18  1  0
 17 19  2  0
 19 20  1  0
 19 21  1  0
 21 22  1  0
 21 23  2  0
 23 24  1  0
 13 25  1  0
 25 26  2  0
 25 27  1  0
 27 28  1  0
 28 29  1  0
 28 30  1  0
 28 31  1  0
 27 32  1  0
 32 33  1  0
 33 34  1  0
 33 35  1  0
 32 36  2  0
 36 37  1  0
 12 38  2  0
 38 39  1  0
  4 40  1  0
 40 41  1  0
 40 42  1  0
 42 43  1  0
 42  2  2  0
 38  5  1  0
 36 13  1  0
 23 14  1  0
M  CHG  1  36   1
M  END
>  <score>  (473) 
4.85732

$$$$

     RDKit          3D

 42 45  0  0  0  0  0  0  0  0999 V2000
   10.6402   -9.8757   -2.6217 H   0  0  0  0  0  0  0  0  0  0  0  0
   11.6048   -9.3921   -2.4832 C   0  0  0  0  0  0  0  0  0  0  0  0
   12.7521   -9.9822   -2.7303 N   0  0  0  0  0  0  0  0  0  0  0  0
   13.8115   -9.1403   -2.3985 C   0  0  0  0  0  0  0  0  0  0  0  0
   14.8485   -9.4473   -2.4716 H   0  0  0  0  0  0  0  0  0  0  0  0
   13.4846   -7.8901   -1.9368 C   0  0  0  0  0  0  0  0  0  0  0  0
   14.4982   -6.9003   -1.5134 C   0  0  0  0  0  0  0  0  0  0  0  0
   15.7929   -7.3494   -1.2271 C   0  0  0  0  0  0  0  0  0  0  0  0
   16.0010   -8.4081   -1.3153 H   0  0  0  0  0  0  0  0  0  0  0  0
   16.7842   -6.4672   -0.7918 C   0  0  0  0  0  0  0  0  0  0  0  0
   17.7783   -6.8326   -0.5587 H   0  0  0  0  0  0  0  0  0  0  0  0
   16.4957   -5.1150   -0.6341 C   0  0  0  0  0  0  0  0  0  0  0  0
   17.2687   -4.4365   -0.2849 H   0  0  0  0  0  0  0  0  0  0  0  0
   15.2094   -4.6306   -0.9044 C   0  0  0  0  0  0  0  0  0  0  0  0
   14.8771   -3.1740   -0.6640 C   0  0  0  0  0  0  0  0  0  0  0  0
   15.4253   -2.2150   -1.7117 C   0  0  0  0  0  0  0  0  0  0  0  0
   15.9492   -2.6513   -2.9437 C   0  0  0  0  0  0  0  0  0  0  0  0
   15.9901   -3.7136   -3.1699 H   0  0  0  0  0  0  0  0  0  0  0  0
   16.4145   -1.7228   -3.8865 C   0  0  0  0  0  0  0  0  0  0  0  0
   16.8199   -2.0621   -4.8342 H   0  0  0  0  0  0  0  0  0  0  0  0
   16.3563   -0.3522   -3.6123 C   0  0  0  0  0  0  0  0  0  0  0  0
   16.7287    0.3648   -4.3389 H   0  0  0  0  0  0  0  0  0  0  0  0
   15.8159    0.0906   -2.4023 C   0  0  0  0  0  0  0  0  0  0  0  0
   15.7561    1.1527   -2.1858 H   0  0  0  0  0  0  0  0  0  0  0  0
   15.3492   -0.8349   -1.4661 C   0  0  0  0  0  0  0  0  0  0  0  0
   14.9197   -0.4801   -0.5332 H   0  0  0  0  0  0  0  0  0  0  0  0
   13.3610   -2.9788   -0.5049 C   0  0  0  0  0  0  0  0  0  0  0  0
   12.4934   -3.1923   -1.3506 O   0  0  0  0  0  0  0  0  0  0  0  0
   13.0866   -2.5898    0.7866 N   0  0  0  0  0  0  0  0  0  0  0  0
   11.7651   -2.2866    1.3261 C   0  0  0  0  0  0  0  0  0  0  0  0
   11.7089   -1.2309    1.6071 H   0  0  0  0  0  0  0  0  0  0  0  0
   11.5508   -2.9007    2.2070 H   0  0  0  0  0  0  0  0  0  0  0  0
   10.9866   -2.4831    0.5797 H   0  0  0  0  0  0  0  0  0  0  0  0
   14.2889   -2.5133    1.4550 C   0  0  0  0  0  0  0  0  0  0  0  0
   14.4624   -2.2030    2.7689 N   0  0  0  0  0  0  0  0  0  0  0  0
   13.6492   -2.1004    3.3726 H   0  0  0  0  0  0  0  0  0  0  0  0
   15.3990   -2.2443    3.1655 H   0  0  0  0  0  0  0  0  0  0  0  0
   15.2968   -2.8008    0.7025 N   0  0  0  0  0  4  0  0  0  0  0  0
   16.2490   -2.9192    1.0545 H   0  0  0  0  0  0  0  0  0  0  0  0
   14.2195   -5.5359   -1.3467 C   0  0  0  0  0  0  0  0  0  0  0  0
   13.2112   -5.1806   -1.5389 H   0  0  0  0  0  0  0  0  0  0  0  0
   11.7413   -7.7385   -1.8937 S   0  0  0  0  0  0  0  0  0  0  0  0
  1  2  1  0
  2  3  2  0
  3  4  1  0
  4  5  1  0
  4  6  2  0
  6  7  1  0
  7  8  2  0
  8  9  1  0
  8 10  1  0
 10 11  1  0
 10 12  2  0
 12 13  1  0
 12 14  1  0
 14 15  1  0
 15 16  1  0
 16 17  2  0
 17 18  1  0
 17 19  1  0
 19 20  1  0
 19 21  2  0
 21 22  1  0
 21 23  1  0
 23 24  1  0
 23 25  2  0
 25 26  1  0
 15 27  1  0
 27 28  2  0
 27 29  1  0
 29 30  1  0
 30 31  1  0
 30 32  1  0
 30 33  1  0
 29 34  1  0
 34 35  1  0
 35 36  1  0
 35 37  1  0
 34 38  2  0
 38 39  1  0
 14 40  2  0
 40 41  1  0
  6 42  1  0
 42  2  1  0
 40  7  1  0
 38 15  1  0
 25 16  1  0
M  CHG  1  38   1
M  END
>  <score>  (474) 
4.85628

$$$$

     RDKit          3D

 43 45  0  0  0  0  0  0  0  0999 V2000
   16.0965   -8.4465   -1.6263 H   0  0  0  0  0  0  0  0  0  0  0  0
   15.8577   -7.3964   -1.4889 C   0  0  0  0  0  0  0  0  0  0  0  0
   16.7473   -6.5622   -0.8038 C   0  0  0  0  0  0  0  0  0  0  0  0
   17.6803   -6.9557   -0.4104 H   0  0  0  0  0  0  0  0  0  0  0  0
   16.4221   -5.2179   -0.5999 C   0  0  0  0  0  0  0  0  0  0  0  0
   17.0990   -4.5681   -0.0522 H   0  0  0  0  0  0  0  0  0  0  0  0
   15.2036   -4.6944   -1.0551 C   0  0  0  0  0  0  0  0  0  0  0  0
   14.8344   -3.2512   -0.7535 C   0  0  0  0  0  0  0  0  0  0  0  0
   15.3924   -2.2506   -1.7549 C   0  0  0  0  0  0  0  0  0  0  0  0
   15.9447   -2.6532   -2.9844 C   0  0  0  0  0  0  0  0  0  0  0  0
   16.0004   -3.7108   -3.2319 H   0  0  0  0  0  0  0  0  0  0  0  0
   16.4183   -1.7001   -3.8950 C   0  0  0  0  0  0  0  0  0  0  0  0
   16.8536   -2.0053   -4.8411 H   0  0  0  0  0  0  0  0  0  0  0  0
   16.3124   -0.3381   -3.5999 C   0  0  0  0  0  0  0  0  0  0  0  0
   16.6830    0.3972   -4.3077 H   0  0  0  0  0  0  0  0  0  0  0  0
   15.7004    0.0862   -2.4160 C   0  0  0  0  0  0  0  0  0  0  0  0
   15.4278    1.5540   -2.1948 C   0  0  0  0  0  0  0  0  0  0  0  0
   14.3965    1.6805   -1.8584 H   0  0  0  0  0  0  0  0  0  0  0  0
   15.5046    2.0883   -3.1513 H   0  0  0  0  0  0  0  0  0  0  0  0
   16.3187    2.1034   -1.2153 O   0  0  0  0  0  0  0  0  0  0  0  0
   17.5607    2.5162   -1.7958 C   0  0  0  0  0  0  0  0  0  0  0  0
   18.3090    2.6775   -1.0231 H   0  0  0  0  0  0  0  0  0  0  0  0
   17.4214    3.4456   -2.3437 H   0  0  0  0  0  0  0  0  0  0  0  0
   17.9437    1.7708   -2.4986 H   0  0  0  0  0  0  0  0  0  0  0  0
   15.2769   -0.8748   -1.4855 C   0  0  0  0  0  0  0  0  0  0  0  0
   14.8338   -0.5606   -0.5436 H   0  0  0  0  0  0  0  0  0  0  0  0
   13.3125   -3.0529   -0.5834 C   0  0  0  0  0  0  0  0  0  0  0  0
   12.4471   -3.1679   -1.4533 O   0  0  0  0  0  0  0  0  0  0  0  0
   13.0389   -2.6886    0.7182 N   0  0  0  0  0  0  0  0  0  0  0  0
   11.7366   -2.3162    1.2797 C   0  0  0  0  0  0  0  0  0  0  0  0
   10.9323   -2.4772    0.5538 H   0  0  0  0  0  0  0  0  0  0  0  0
   11.7274   -1.2584    1.5619 H   0  0  0  0  0  0  0  0  0  0  0  0
   11.5057   -2.9127    2.1690 H   0  0  0  0  0  0  0  0  0  0  0  0
   14.2491   -2.6174    1.3758 C   0  0  0  0  0  0  0  0  0  0  0  0
   14.4240   -2.2753    2.6805 N   0  0  0  0  0  0  0  0  0  0  0  0
   13.6119   -2.1186    3.2725 H   0  0  0  0  0  0  0  0  0  0  0  0
   15.3619   -2.3126    3.0795 H   0  0  0  0  0  0  0  0  0  0  0  0
   15.2527   -2.9158    0.6234 N   0  0  0  0  0  4  0  0  0  0  0  0
   16.2176   -2.9818    0.9549 H   0  0  0  0  0  0  0  0  0  0  0  0
   14.3236   -5.5382   -1.7556 C   0  0  0  0  0  0  0  0  0  0  0  0
   13.3715   -5.1519   -2.1066 H   0  0  0  0  0  0  0  0  0  0  0  0
   14.6496   -6.8833   -1.9728 C   0  0  0  0  0  0  0  0  0  0  0  0
   13.9534   -7.5379   -2.4896 H   0  0  0  0  0  0  0  0  0  0  0  0
  1  2  1  0
  2  3  2  0
  3  4  1  0
  3  5  1  0
  5  6  1  0
  5  7  2  0
  7  8  1  0
  8  9  1  0
  9 10  2  0
 10 11  1  0
 10 12  1  0
 12 13  1  0
 12 14  2  0
 14 15  1  0
 14 16  1  0
 16 17  1  0
 17 18  1  0
 17 19  1  0
 17 20  1  0
 20 21  1  0
 21 22  1  0
 21 23  1  0
 21 24  1  0
 16 25  2  0
 25 26  1  0
  8 27  1  0
 27 28  2  0
 27 29  1  0
 29 30  1  0
 30 31  1  0
 30 32  1  0
 30 33  1  0
 29 34  1  0
 34 35  1  0
 35 36  1  0
 35 37  1  0
 34 38  2  0
 38 39  1  0
  7 40  1  0
 40 41  1  0
 40 42  2  0
 42 43  1  0
 42  2  1  0
 38  8  1  0
 25  9  1  0
M  CHG  1  38   1
M  END
>  <score>  (475) 
4.85424

$$$$

     RDKit          3D

 45 47  0  0  0  0  0  0  0  0999 V2000
   16.1262   -8.3848   -1.6969 H   0  0  0  0  0  0  0  0  0  0  0  0
   15.8805   -7.3441   -1.4982 C   0  0  0  0  0  0  0  0  0  0  0  0
   16.7735   -6.5306   -0.7944 C   0  0  0  0  0  0  0  0  0  0  0  0
   17.7217   -6.9376   -0.4544 H   0  0  0  0  0  0  0  0  0  0  0  0
   16.4442   -5.1949   -0.5207 C   0  0  0  0  0  0  0  0  0  0  0  0
   17.1550   -4.5799    0.0230 H   0  0  0  0  0  0  0  0  0  0  0  0
   15.2160   -4.6496   -0.9390 C   0  0  0  0  0  0  0  0  0  0  0  0
   14.8421   -3.1955   -0.6488 C   0  0  0  0  0  0  0  0  0  0  0  0
   15.4189   -2.2101   -1.6591 C   0  0  0  0  0  0  0  0  0  0  0  0
   15.9482   -2.6602   -2.8795 C   0  0  0  0  0  0  0  0  0  0  0  0
   15.9939   -3.7255   -3.0842 H   0  0  0  0  0  0  0  0  0  0  0  0
   16.4141   -1.7601   -3.8405 C   0  0  0  0  0  0  0  0  0  0  0  0
   16.8129   -2.1186   -4.7850 H   0  0  0  0  0  0  0  0  0  0  0  0
   16.3461   -0.3868   -3.5899 C   0  0  0  0  0  0  0  0  0  0  0  0
   16.6841    0.3270   -4.3336 H   0  0  0  0  0  0  0  0  0  0  0  0
   15.8184    0.1015   -2.3930 C   0  0  0  0  0  0  0  0  0  0  0  0
   15.7492    1.4693   -2.2605 O   0  0  0  0  0  0  0  0  0  0  0  0
   15.2519    2.0267   -1.0276 C   0  0  0  0  0  0  0  0  0  0  0  0
   14.9413    3.0591   -1.2238 H   0  0  0  0  0  0  0  0  0  0  0  0
   14.3783    1.4728   -0.6734 H   0  0  0  0  0  0  0  0  0  0  0  0
   16.3197    2.0447    0.0670 C   0  0  0  0  0  0  0  0  0  0  0  0
   16.4597    1.0255    0.4536 H   0  0  0  0  0  0  0  0  0  0  0  0
   17.2637    2.3914   -0.3664 H   0  0  0  0  0  0  0  0  0  0  0  0
   15.9189    2.9503    1.1664 N   0  0  0  0  0  0  0  0  0  0  0  0
   15.8447    3.9201    0.8569 H   0  0  0  0  0  0  0  0  0  0  0  0
   16.5569    2.8799    1.9575 H   0  0  0  0  0  0  0  0  0  0  0  0
   15.3600   -0.8176   -1.4303 C   0  0  0  0  0  0  0  0  0  0  0  0
   14.9448   -0.4402   -0.5017 H   0  0  0  0  0  0  0  0  0  0  0  0
   13.3214   -2.9717   -0.5498 C   0  0  0  0  0  0  0  0  0  0  0  0
   12.4896   -3.2065   -1.4264 O   0  0  0  0  0  0  0  0  0  0  0  0
   12.9874   -2.4894    0.7001 N   0  0  0  0  0  0  0  0  0  0  0  0
   11.6287   -2.2533    1.2178 C   0  0  0  0  0  0  0  0  0  0  0  0
   11.4984   -1.2177    1.5638 H   0  0  0  0  0  0  0  0  0  0  0  0
   10.8784   -2.4283    0.4358 H   0  0  0  0  0  0  0  0  0  0  0  0
   11.4084   -2.9399    2.0467 H   0  0  0  0  0  0  0  0  0  0  0  0
   14.1656   -2.4679    1.4280 C   0  0  0  0  0  0  0  0  0  0  0  0
   14.2865   -2.0693    2.7260 N   0  0  0  0  0  0  0  0  0  0  0  0
   13.4356   -1.8956    3.2599 H   0  0  0  0  0  0  0  0  0  0  0  0
   15.1522   -2.2959    3.2136 H   0  0  0  0  0  0  0  0  0  0  0  0
   15.1977   -2.8436    0.7381 N   0  0  0  0  0  4  0  0  0  0  0  0
   16.1612   -2.8361    1.0817 H   0  0  0  0  0  0  0  0  0  0  0  0
   14.3478   -5.4739   -1.6765 C   0  0  0  0  0  0  0  0  0  0  0  0
   13.4097   -5.0803   -2.0507 H   0  0  0  0  0  0  0  0  0  0  0  0
   14.6732   -6.8077   -1.9502 C   0  0  0  0  0  0  0  0  0  0  0  0
   13.9835   -7.4301   -2.5121 H   0  0  0  0  0  0  0  0  0  0  0  0
  1  2  1  0
  2  3  2  0
  3  4  1  0
  3  5  1  0
  5  6  1  0
  5  7  2  0
  7  8  1  0
  8  9  1  0
  9 10  2  0
 10 11  1  0
 10 12  1  0
 12 13  1  0
 12 14  2  0
 14 15  1  0
 14 16  1  0
 16 17  1  0
 17 18  1  0
 18 19  1  0
 18 20  1  0
 18 21  1  0
 21 22  1  0
 21 23  1  0
 21 24  1  0
 24 25  1  0
 24 26  1  0
 16 27  2  0
 27 28  1  0
  8 29  1  0
 29 30  2  0
 29 31  1  0
 31 32  1  0
 32 33  1  0
 32 34  1  0
 32 35  1  0
 31 36  1  0
 36 37  1  0
 37 38  1  0
 37 39  1  0
 36 40  2  0
 40 41  1  0
  7 42  1  0
 42 43  1  0
 42 44  2  0
 44 45  1  0
 44  2  1  0
 40  8  1  0
 27  9  1  0
M  CHG  1  40   1
M  END
>  <score>  (476) 
4.84688

$$$$

     RDKit          3D

 40 42  0  0  0  0  0  0  0  0999 V2000
   14.0136   -7.1144   -4.3282 H   0  0  0  0  0  0  0  0  0  0  0  0
   14.0344   -7.9956   -3.9138 O   0  0  0  0  0  0  0  0  0  0  0  0
   13.7288   -7.8993   -2.5258 C   0  0  0  0  0  0  0  0  0  0  0  0
   12.6940   -7.5900   -2.3560 H   0  0  0  0  0  0  0  0  0  0  0  0
   13.8584   -8.8784   -2.0538 H   0  0  0  0  0  0  0  0  0  0  0  0
   14.6657   -6.9143   -1.9018 C   0  0  0  0  0  0  0  0  0  0  0  0
   15.8934   -7.3888   -1.4402 C   0  0  0  0  0  0  0  0  0  0  0  0
   16.1271   -8.4381   -1.5840 H   0  0  0  0  0  0  0  0  0  0  0  0
   16.7806   -6.5389   -0.7816 C   0  0  0  0  0  0  0  0  0  0  0  0
   17.7129   -6.9407   -0.3946 H   0  0  0  0  0  0  0  0  0  0  0  0
   16.4396   -5.1961   -0.5896 C   0  0  0  0  0  0  0  0  0  0  0  0
   17.1008   -4.5359   -0.0342 H   0  0  0  0  0  0  0  0  0  0  0  0
   15.2132   -4.6920   -1.0523 C   0  0  0  0  0  0  0  0  0  0  0  0
   14.8320   -3.2479   -0.7551 C   0  0  0  0  0  0  0  0  0  0  0  0
   15.3903   -2.2524   -1.7683 C   0  0  0  0  0  0  0  0  0  0  0  0
   15.9398   -2.6589   -3.0000 C   0  0  0  0  0  0  0  0  0  0  0  0
   15.9878   -3.7210   -3.2264 H   0  0  0  0  0  0  0  0  0  0  0  0
   16.4174   -1.7132   -3.9222 C   0  0  0  0  0  0  0  0  0  0  0  0
   16.8427   -2.0227   -4.8738 H   0  0  0  0  0  0  0  0  0  0  0  0
   16.3471   -0.3487   -3.6167 C   0  0  0  0  0  0  0  0  0  0  0  0
   16.7260    0.3882   -4.3170 H   0  0  0  0  0  0  0  0  0  0  0  0
   15.7929    0.0681   -2.4023 C   0  0  0  0  0  0  0  0  0  0  0  0
   15.7326    1.1259   -2.1623 H   0  0  0  0  0  0  0  0  0  0  0  0
   15.3139   -0.8775   -1.4912 C   0  0  0  0  0  0  0  0  0  0  0  0
   14.8770   -0.5484   -0.5517 H   0  0  0  0  0  0  0  0  0  0  0  0
   13.3066   -3.0531   -0.5858 C   0  0  0  0  0  0  0  0  0  0  0  0
   12.4471   -3.1562   -1.4608 O   0  0  0  0  0  0  0  0  0  0  0  0
   13.0318   -2.6881    0.7184 N   0  0  0  0  0  0  0  0  0  0  0  0
   11.7274   -2.3152    1.2791 C   0  0  0  0  0  0  0  0  0  0  0  0
   10.9251   -2.4758    0.5497 H   0  0  0  0  0  0  0  0  0  0  0  0
   11.5029   -2.9188    2.1691 H   0  0  0  0  0  0  0  0  0  0  0  0
   11.7236   -1.2543    1.5613 H   0  0  0  0  0  0  0  0  0  0  0  0
   14.2443   -2.6190    1.3723 C   0  0  0  0  0  0  0  0  0  0  0  0
   14.4180   -2.2815    2.6759 N   0  0  0  0  0  0  0  0  0  0  0  0
   13.6064   -2.1221    3.2671 H   0  0  0  0  0  0  0  0  0  0  0  0
   15.3557   -2.3221    3.0752 H   0  0  0  0  0  0  0  0  0  0  0  0
   15.2541   -2.9130    0.6224 N   0  0  0  0  0  4  0  0  0  0  0  0
   16.2212   -2.9825    0.9621 H   0  0  0  0  0  0  0  0  0  0  0  0
   14.3346   -5.5593   -1.7259 C   0  0  0  0  0  0  0  0  0  0  0  0
   13.3812   -5.1729   -2.0765 H   0  0  0  0  0  0  0  0  0  0  0  0
  1  2  1  0
  2  3  1  0
  3  4  1  0
  3  5  1  0
  3  6  1  0
  6  7  2  0
  7  8  1  0
  7  9  1  0
  9 10  1  0
  9 11  2  0
 11 12  1  0
 11 13  1  0
 13 14  1  0
 14 15  1  0
 15 16  2  0
 16 17  1  0
 16 18  1  0
 18 19  1  0
 18 20  2  0
 20 21  1  0
 20 22  1  0
 22 23  1  0
 22 24  2  0
 24 25  1  0
 14 26  1  0
 26 27  2  0
 26 28  1  0
 28 29  1  0
 29 30  1  0
 29 31  1  0
 29 32  1  0
 28 33  1  0
 33 34  1  0
 34 35  1  0
 34 36  1  0
 33 37  2  0
 37 38  1  0
 13 39  2  0
 39 40  1  0
 39  6  1  0
 37 14  1  0
 24 15  1  0
M  CHG  1  37   1
M  END
>  <score>  (477) 
4.84669

$$$$

     RDKit          3D

 43 46  0  0  0  0  0  0  0  0999 V2000
   10.6726   -9.5982   -2.2476 H   0  0  0  0  0  0  0  0  0  0  0  0
   11.7086   -9.2722   -2.1808 C   0  0  0  0  0  0  0  0  0  0  0  0
   12.7883  -10.0926   -2.3977 O   0  0  0  0  0  0  0  0  0  0  0  0
   13.9115   -9.3303   -2.1778 C   0  0  0  0  0  0  0  0  0  0  0  0
   14.9325   -9.7007   -2.2238 H   0  0  0  0  0  0  0  0  0  0  0  0
   13.5754   -8.0462   -1.8282 C   0  0  0  0  0  0  0  0  0  0  0  0
   14.5518   -7.0083   -1.4467 C   0  0  0  0  0  0  0  0  0  0  0  0
   15.8746   -7.3989   -1.1879 C   0  0  0  0  0  0  0  0  0  0  0  0
   16.1450   -8.4434   -1.2936 H   0  0  0  0  0  0  0  0  0  0  0  0
   16.8321   -6.4706   -0.7752 C   0  0  0  0  0  0  0  0  0  0  0  0
   17.8483   -6.7861   -0.5560 H   0  0  0  0  0  0  0  0  0  0  0  0
   16.4726   -5.1332   -0.6205 C   0  0  0  0  0  0  0  0  0  0  0  0
   17.2079   -4.4198   -0.2625 H   0  0  0  0  0  0  0  0  0  0  0  0
   15.1655   -4.6982   -0.8836 C   0  0  0  0  0  0  0  0  0  0  0  0
   14.7984   -3.2344   -0.6518 C   0  0  0  0  0  0  0  0  0  0  0  0
   15.3972   -2.2616   -1.6600 C   0  0  0  0  0  0  0  0  0  0  0  0
   15.9318   -2.6921   -2.8869 C   0  0  0  0  0  0  0  0  0  0  0  0
   15.9724   -3.7511   -3.1229 H   0  0  0  0  0  0  0  0  0  0  0  0
   16.4020   -1.7643   -3.8271 C   0  0  0  0  0  0  0  0  0  0  0  0
   16.8138   -2.0941   -4.7743 H   0  0  0  0  0  0  0  0  0  0  0  0
   16.3397   -0.3947   -3.5574 C   0  0  0  0  0  0  0  0  0  0  0  0
   16.6973    0.3273   -4.2863 H   0  0  0  0  0  0  0  0  0  0  0  0
   15.8108    0.0477   -2.3441 C   0  0  0  0  0  0  0  0  0  0  0  0
   15.7580    1.1098   -2.1239 H   0  0  0  0  0  0  0  0  0  0  0  0
   15.3400   -0.8780   -1.4076 C   0  0  0  0  0  0  0  0  0  0  0  0
   14.9135   -0.5221   -0.4740 H   0  0  0  0  0  0  0  0  0  0  0  0
   13.2775   -3.0041   -0.5525 C   0  0  0  0  0  0  0  0  0  0  0  0
   12.4345   -3.2478   -1.4181 O   0  0  0  0  0  0  0  0  0  0  0  0
   12.9608   -2.4965    0.6905 N   0  0  0  0  0  0  0  0  0  0  0  0
   11.6016   -2.2557    1.1894 C   0  0  0  0  0  0  0  0  0  0  0  0
   11.3809   -2.9414    2.0158 H   0  0  0  0  0  0  0  0  0  0  0  0
   11.4763   -1.2217    1.5425 H   0  0  0  0  0  0  0  0  0  0  0  0
   10.8705   -2.4358    0.3873 H   0  0  0  0  0  0  0  0  0  0  0  0
   14.1408   -2.4627    1.4113 C   0  0  0  0  0  0  0  0  0  0  0  0
   14.3169   -2.1382    2.7182 N   0  0  0  0  0  0  0  0  0  0  0  0
   13.5022   -1.9092    3.2822 H   0  0  0  0  0  0  0  0  0  0  0  0
   15.2460   -2.2217    3.1372 H   0  0  0  0  0  0  0  0  0  0  0  0
   15.1626   -2.8393    0.7241 N   0  0  0  0  0  4  0  0  0  0  0  0
   16.1117   -2.8724    1.0991 H   0  0  0  0  0  0  0  0  0  0  0  0
   14.2078   -5.6514   -1.3032 C   0  0  0  0  0  0  0  0  0  0  0  0
   13.1832   -5.3427   -1.4954 H   0  0  0  0  0  0  0  0  0  0  0  0
   12.1244   -8.0098   -1.8465 C   0  0  0  0  0  0  0  0  0  0  0  0
   11.4814   -7.1628   -1.6222 H   0  0  0  0  0  0  0  0  0  0  0  0
  1  2  1  0
  2  3  1  0
  3  4  1  0
  4  5  1  0
  4  6  2  0
  6  7  1  0
  7  8  2  0
  8  9  1  0
  8 10  1  0
 10 11  1  0
 10 12  2  0
 12 13  1  0
 12 14  1  0
 14 15  1  0
 15 16  1  0
 16 17  2  0
 17 18  1  0
 17 19  1  0
 19 20  1  0
 19 21  2  0
 21 22  1  0
 21 23  1  0
 23 24  1  0
 23 25  2  0
 25 26  1  0
 15 27  1  0
 27 28  2  0
 27 29  1  0
 29 30  1  0
 30 31  1  0
 30 32  1  0
 30 33  1  0
 29 34  1  0
 34 35  1  0
 35 36  1  0
 35 37  1  0
 34 38  2  0
 38 39  1  0
 14 40  2  0
 40 41  1  0
  6 42  1  0
 42 43  1  0
 42  2  2  0
 40  7  1  0
 38 15  1  0
 25 16  1  0
M  CHG  1  38   1
M  END
>  <score>  (478) 
4.83758

$$$$

     RDKit          3D

 44 46  0  0  0  0  0  0  0  0999 V2000
   16.6972   -6.0966   -4.2163 H   0  0  0  0  0  0  0  0  0  0  0  0
   16.3641   -6.8171   -3.6428 O   0  0  0  0  0  0  0  0  0  0  0  0
   15.2225   -7.5047   -4.1807 N   0  0  0  0  0  0  0  0  0  0  0  0
   15.2974   -7.9371   -5.1064 H   0  0  0  0  0  0  0  0  0  0  0  0
   14.2214   -8.0862   -3.4102 C   0  0  0  0  0  0  0  0  0  0  0  0
   13.5465   -8.9386   -3.9685 O   0  0  0  0  0  0  0  0  0  0  0  0
   13.9539   -7.8386   -1.9284 C   0  0  0  0  0  0  0  0  0  0  0  0
   12.9311   -7.4798   -1.7956 H   0  0  0  0  0  0  0  0  0  0  0  0
   14.0421   -8.7834   -1.3898 H   0  0  0  0  0  0  0  0  0  0  0  0
   14.9002   -6.8364   -1.3597 C   0  0  0  0  0  0  0  0  0  0  0  0
   16.1709   -7.2199   -0.9300 C   0  0  0  0  0  0  0  0  0  0  0  0
   16.4541   -8.2664   -0.9769 H   0  0  0  0  0  0  0  0  0  0  0  0
   17.0721   -6.2557   -0.4653 C   0  0  0  0  0  0  0  0  0  0  0  0
   18.0642   -6.5462   -0.1246 H   0  0  0  0  0  0  0  0  0  0  0  0
   16.6715   -4.9185   -0.3754 C   0  0  0  0  0  0  0  0  0  0  0  0
   17.3496   -4.1787    0.0336 H   0  0  0  0  0  0  0  0  0  0  0  0
   15.3868   -4.5241   -0.7697 C   0  0  0  0  0  0  0  0  0  0  0  0
   14.9211   -3.0918   -0.5497 C   0  0  0  0  0  0  0  0  0  0  0  0
   15.4489   -2.1276   -1.6077 C   0  0  0  0  0  0  0  0  0  0  0  0
   15.9430   -2.6122   -2.8311 C   0  0  0  0  0  0  0  0  0  0  0  0
   15.9708   -3.6851   -3.0015 H   0  0  0  0  0  0  0  0  0  0  0  0
   16.3932   -1.7352   -3.8235 C   0  0  0  0  0  0  0  0  0  0  0  0
   16.7793   -2.1264   -4.7577 H   0  0  0  0  0  0  0  0  0  0  0  0
   16.3471   -0.3568   -3.6126 C   0  0  0  0  0  0  0  0  0  0  0  0
   16.7050    0.3183   -4.3843 H   0  0  0  0  0  0  0  0  0  0  0  0
   15.8381    0.1419   -2.4120 C   0  0  0  0  0  0  0  0  0  0  0  0
   15.7969    1.2144   -2.2578 H   0  0  0  0  0  0  0  0  0  0  0  0
   15.3866   -0.7344   -1.4174 C   0  0  0  0  0  0  0  0  0  0  0  0
   14.9846   -0.3206   -0.4967 H   0  0  0  0  0  0  0  0  0  0  0  0
   13.3878   -3.0238   -0.4526 C   0  0  0  0  0  0  0  0  0  0  0  0
   12.5685   -3.2386   -1.3474 O   0  0  0  0  0  0  0  0  0  0  0  0
   13.0163   -2.7068    0.8327 N   0  0  0  0  0  0  0  0  0  0  0  0
   11.6656   -2.3700    1.2743 C   0  0  0  0  0  0  0  0  0  0  0  0
   10.9476   -2.5269    0.4637 H   0  0  0  0  0  0  0  0  0  0  0  0
   11.6187   -1.3199    1.5693 H   0  0  0  0  0  0  0  0  0  0  0  0
   11.3541   -2.9805    2.1257 H   0  0  0  0  0  0  0  0  0  0  0  0
   14.1733   -2.5539    1.5623 C   0  0  0  0  0  0  0  0  0  0  0  0
   14.2206   -2.3367    2.9055 N   0  0  0  0  0  0  0  0  0  0  0  0
   15.0968   -2.0244    3.3214 H   0  0  0  0  0  0  0  0  0  0  0  0
   13.3432   -2.1567    3.3896 H   0  0  0  0  0  0  0  0  0  0  0  0
   15.2356   -2.6799    0.8398 N   0  0  0  0  0  4  0  0  0  0  0  0
   16.1731   -2.7520    1.2456 H   0  0  0  0  0  0  0  0  0  0  0  0
   14.5265   -5.4953   -1.3083 C   0  0  0  0  0  0  0  0  0  0  0  0
   13.5404   -5.2234   -1.6706 H   0  0  0  0  0  0  0  0  0  0  0  0
  1  2  1  0
  2  3  1  0
  3  4  1  0
  3  5  1  0
  5  6  2  0
  5  7  1  0
  7  8  1  0
  7  9  1  0
  7 10  1  0
 10 11  2  0
 11 12  1  0
 11 13  1  0
 13 14  1  0
 13 15  2  0
 15 16  1  0
 15 17  1  0
 17 18  1  0
 18 19  1  0
 19 20  2  0
 20 21  1  0
 20 22  1  0
 22 23  1  0
 22 24  2  0
 24 25  1  0
 24 26  1  0
 26 27  1  0
 26 28  2  0
 28 29  1  0
 18 30  1  0
 30 31  2  0
 30 32  1  0
 32 33  1  0
 33 34  1  0
 33 35  1  0
 33 36  1  0
 32 37  1  0
 37 38  1  0
 38 39  1  0
 38 40  1  0
 37 41  2  0
 41 42  1  0
 17 43  2  0
 43 44  1  0
 43 10  1  0
 41 18  1  0
 28 19  1  0
M  CHG  1  41   1
M  END
>  <score>  (479) 
4.8344

$$$$

     RDKit          3D

 39 41  0  0  0  0  0  0  0  0999 V2000
   12.9044   -9.5978   -2.2311 H   0  0  0  0  0  0  0  0  0  0  0  0
   13.4482   -9.0538   -1.6452 O   0  0  0  0  0  0  0  0  0  0  0  0
   13.9915   -8.0746   -2.4214 C   0  0  0  0  0  0  0  0  0  0  0  0
   13.8987   -8.0560   -3.6356 O   0  0  0  0  0  0  0  0  0  0  0  0
   14.8051   -7.0247   -1.7836 C   0  0  0  0  0  0  0  0  0  0  0  0
   16.0702   -7.3988   -1.3070 C   0  0  0  0  0  0  0  0  0  0  0  0
   16.4102   -8.4267   -1.3991 H   0  0  0  0  0  0  0  0  0  0  0  0
   16.9195   -6.4606   -0.7273 C   0  0  0  0  0  0  0  0  0  0  0  0
   17.8938   -6.7633   -0.3613 H   0  0  0  0  0  0  0  0  0  0  0  0
   16.5096   -5.1371   -0.5871 C   0  0  0  0  0  0  0  0  0  0  0  0
   17.1620   -4.4274   -0.0858 H   0  0  0  0  0  0  0  0  0  0  0  0
   15.2413   -4.7251   -1.0169 C   0  0  0  0  0  0  0  0  0  0  0  0
   14.8189   -3.2856   -0.7502 C   0  0  0  0  0  0  0  0  0  0  0  0
   15.3691   -2.2876   -1.7602 C   0  0  0  0  0  0  0  0  0  0  0  0
   15.9196   -2.6897   -2.9900 C   0  0  0  0  0  0  0  0  0  0  0  0
   15.9741   -3.7437   -3.2423 H   0  0  0  0  0  0  0  0  0  0  0  0
   16.4076   -1.7415   -3.8988 C   0  0  0  0  0  0  0  0  0  0  0  0
   16.8349   -2.0553   -4.8443 H   0  0  0  0  0  0  0  0  0  0  0  0
   16.3486   -0.3791   -3.5940 C   0  0  0  0  0  0  0  0  0  0  0  0
   16.7299    0.3589   -4.2945 H   0  0  0  0  0  0  0  0  0  0  0  0
   15.7896    0.0324   -2.3813 C   0  0  0  0  0  0  0  0  0  0  0  0
   15.7346    1.0865   -2.1317 H   0  0  0  0  0  0  0  0  0  0  0  0
   15.2983   -0.9136   -1.4777 C   0  0  0  0  0  0  0  0  0  0  0  0
   14.8642   -0.5829   -0.5379 H   0  0  0  0  0  0  0  0  0  0  0  0
   13.2985   -3.1056   -0.5655 C   0  0  0  0  0  0  0  0  0  0  0  0
   12.4209   -3.2480   -1.4190 O   0  0  0  0  0  0  0  0  0  0  0  0
   13.0402   -2.6931    0.7274 N   0  0  0  0  0  0  0  0  0  0  0  0
   11.7462   -2.3110    1.2940 C   0  0  0  0  0  0  0  0  0  0  0  0
   11.5253   -2.9046    2.1907 H   0  0  0  0  0  0  0  0  0  0  0  0
   11.7548   -1.2487    1.5683 H   0  0  0  0  0  0  0  0  0  0  0  0
   10.9371   -2.4724    0.5714 H   0  0  0  0  0  0  0  0  0  0  0  0
   14.2540   -2.5965    1.3721 C   0  0  0  0  0  0  0  0  0  0  0  0
   14.4521   -2.2261    2.6669 N   0  0  0  0  0  0  0  0  0  0  0  0
   15.3904   -2.3124    3.0596 H   0  0  0  0  0  0  0  0  0  0  0  0
   13.6480   -2.1126    3.2812 H   0  0  0  0  0  0  0  0  0  0  0  0
   15.2461   -2.9129    0.6145 N   0  0  0  0  0  4  0  0  0  0  0  0
   16.2093   -3.0016    0.9485 H   0  0  0  0  0  0  0  0  0  0  0  0
   14.3992   -5.6659   -1.6487 C   0  0  0  0  0  0  0  0  0  0  0  0
   13.4353   -5.3143   -2.0138 H   0  0  0  0  0  0  0  0  0  0  0  0
  1  2  1  0
  2  3  1  0
  3  4  2  0
  3  5  1  0
  5  6  2  0
  6  7  1  0
  6  8  1  0
  8  9  1  0
  8 10  2  0
 10 11  1  0
 10 12  1  0
 12 13  1  0
 13 14  1  0
 14 15  2  0
 15 16  1  0
 15 17  1  0
 17 18  1  0
 17 19  2  0
 19 20  1  0
 19 21  1  0
 21 22  1  0
 21 23  2  0
 23 24  1  0
 13 25  1  0
 25 26  2  0
 25 27  1  0
 27 28  1  0
 28 29  1  0
 28 30  1  0
 28 31  1  0
 27 32  1  0
 32 33  1  0
 33 34  1  0
 33 35  1  0
 32 36  2  0
 36 37  1  0
 12 38  2  0
 38 39  1  0
 38  5  1  0
 36 13  1  0
 23 14  1  0
M  CHG  1  36   1
M  END
>  <score>  (480) 
4.82169

$$$$

     RDKit          3D

 45 48  0  0  0  0  0  0  0  0999 V2000
   10.6808  -10.3569   -2.7880 H   0  0  0  0  0  0  0  0  0  0  0  0
   11.4492   -9.6293   -2.5311 C   0  0  0  0  0  0  0  0  0  0  0  0
   12.7398   -9.9816   -2.6327 N   0  0  0  0  0  0  0  0  0  0  0  0
   13.6837   -9.0828   -2.2907 C   0  0  0  0  0  0  0  0  0  0  0  0
   14.7261   -9.3611   -2.4083 H   0  0  0  0  0  0  0  0  0  0  0  0
   13.3900   -7.7934   -1.8203 C   0  0  0  0  0  0  0  0  0  0  0  0
   14.4797   -6.8656   -1.4546 C   0  0  0  0  0  0  0  0  0  0  0  0
   15.7989   -7.3185   -1.2910 C   0  0  0  0  0  0  0  0  0  0  0  0
   16.0254   -8.3729   -1.4129 H   0  0  0  0  0  0  0  0  0  0  0  0
   16.8224   -6.4295   -0.9394 C   0  0  0  0  0  0  0  0  0  0  0  0
   17.8367   -6.7887   -0.7911 H   0  0  0  0  0  0  0  0  0  0  0  0
   16.5359   -5.0741   -0.7494 C   0  0  0  0  0  0  0  0  0  0  0  0
   17.3271   -4.3910   -0.4532 H   0  0  0  0  0  0  0  0  0  0  0  0
   15.2317   -4.5921   -0.9186 C   0  0  0  0  0  0  0  0  0  0  0  0
   14.8971   -3.1287   -0.6794 C   0  0  0  0  0  0  0  0  0  0  0  0
   15.4431   -2.1680   -1.7262 C   0  0  0  0  0  0  0  0  0  0  0  0
   15.9716   -2.6121   -2.9508 C   0  0  0  0  0  0  0  0  0  0  0  0
   16.0196   -3.6759   -3.1635 H   0  0  0  0  0  0  0  0  0  0  0  0
   16.4379   -1.6935   -3.9012 C   0  0  0  0  0  0  0  0  0  0  0  0
   16.8461   -2.0425   -4.8435 H   0  0  0  0  0  0  0  0  0  0  0  0
   16.3797   -0.3209   -3.6406 C   0  0  0  0  0  0  0  0  0  0  0  0
   16.7399    0.3897   -4.3800 H   0  0  0  0  0  0  0  0  0  0  0  0
   15.8562    0.1325   -2.4269 C   0  0  0  0  0  0  0  0  0  0  0  0
   15.8129    1.1964   -2.2143 H   0  0  0  0  0  0  0  0  0  0  0  0
   15.3882   -0.7850   -1.4810 C   0  0  0  0  0  0  0  0  0  0  0  0
   14.9803   -0.4226   -0.5409 H   0  0  0  0  0  0  0  0  0  0  0  0
   13.3854   -2.9102   -0.4519 C   0  0  0  0  0  0  0  0  0  0  0  0
   12.4849   -3.0279   -1.2840 O   0  0  0  0  0  0  0  0  0  0  0  0
   13.1641   -2.6006    0.8702 N   0  0  0  0  0  0  0  0  0  0  0  0
   11.9024   -2.2408    1.5166 C   0  0  0  0  0  0  0  0  0  0  0  0
   11.9178   -2.5222    2.5734 H   0  0  0  0  0  0  0  0  0  0  0  0
   11.0543   -2.7555    1.0538 H   0  0  0  0  0  0  0  0  0  0  0  0
   11.7385   -1.1610    1.4515 H   0  0  0  0  0  0  0  0  0  0  0  0
   14.3947   -2.5135    1.4657 C   0  0  0  0  0  0  0  0  0  0  0  0
   14.6062   -2.2325    2.7702 N   0  0  0  0  0  0  0  0  0  0  0  0
   15.5423   -2.4137    3.1123 H   0  0  0  0  0  0  0  0  0  0  0  0
   13.8216   -2.3463    3.4057 H   0  0  0  0  0  0  0  0  0  0  0  0
   15.3741   -2.7662    0.6630 N   0  0  0  0  0  4  0  0  0  0  0  0
   16.3434   -2.8569    0.9663 H   0  0  0  0  0  0  0  0  0  0  0  0
   14.2201   -5.5036   -1.2616 C   0  0  0  0  0  0  0  0  0  0  0  0
   13.2012   -5.1534   -1.3619 H   0  0  0  0  0  0  0  0  0  0  0  0
   12.0419   -7.4219   -1.7402 C   0  0  0  0  0  0  0  0  0  0  0  0
   11.7660   -6.4207   -1.4148 H   0  0  0  0  0  0  0  0  0  0  0  0
   11.0672   -8.3571   -2.0949 C   0  0  0  0  0  0  0  0  0  0  0  0
   10.0160   -8.1046   -2.0379 H   0  0  0  0  0  0  0  0  0  0  0  0
  1  2  1  0
  2  3  2  0
  3  4  1  0
  4  5  1  0
  4  6  2  0
  6  7  1  0
  7  8  2  0
  8  9  1  0
  8 10  1  0
 10 11  1  0
 10 12  2  0
 12 13  1  0
 12 14  1  0
 14 15  1  0
 15 16  1  0
 16 17  2  0
 17 18  1  0
 17 19  1  0
 19 20  1  0
 19 21  2  0
 21 22  1  0
 21 23  1  0
 23 24  1  0
 23 25  2  0
 25 26  1  0
 15 27  1  0
 27 28  2  0
 27 29  1  0
 29 30  1  0
 30 31  1  0
 30 32  1  0
 30 33  1  0
 29 34  1  0
 34 35  1  0
 35 36  1  0
 35 37  1  0
 34 38  2  0
 38 39  1  0
 14 40  2  0
 40 41  1  0
  6 42  1  0
 42 43  1  0
 42 44  2  0
 44 45  1  0
 44  2  1  0
 40  7  1  0
 38 15  1  0
 25 16  1  0
M  CHG  1  38   1
M  END
>  <score>  (481) 
4.81596

$$$$

     RDKit          3D

 47 49  0  0  0  0  0  0  0  0999 V2000
   10.8719  -10.6826   -3.9105 H   0  0  0  0  0  0  0  0  0  0  0  0
   10.8896  -10.5043   -2.9428 O   0  0  0  0  0  0  0  0  0  0  0  0
   11.8659   -9.5140   -2.5571 N   0  0  0  0  0  0  0  0  0  0  0  0
   11.6341   -8.8548   -1.8142 H   0  0  0  0  0  0  0  0  0  0  0  0
   13.1799   -9.4671   -3.0051 C   0  0  0  0  0  0  0  0  0  0  0  0
   13.5848  -10.3159   -3.7802 O   0  0  0  0  0  0  0  0  0  0  0  0
   14.1009   -8.3049   -2.6269 C   0  0  0  0  0  0  0  0  0  0  0  0
   15.1291   -8.6362   -2.7478 H   0  0  0  0  0  0  0  0  0  0  0  0
   13.9350   -7.4932   -3.3450 H   0  0  0  0  0  0  0  0  0  0  0  0
   13.9468   -7.8202   -1.1700 C   0  0  0  0  0  0  0  0  0  0  0  0
   14.0489   -8.6488   -0.4582 H   0  0  0  0  0  0  0  0  0  0  0  0
   12.9554   -7.3804   -1.0172 H   0  0  0  0  0  0  0  0  0  0  0  0
   14.9996   -6.7832   -0.8861 C   0  0  0  0  0  0  0  0  0  0  0  0
   16.3569   -7.1064   -0.7432 C   0  0  0  0  0  0  0  0  0  0  0  0
   16.6801   -8.1405   -0.8062 H   0  0  0  0  0  0  0  0  0  0  0  0
   17.3042   -6.0953   -0.5506 C   0  0  0  0  0  0  0  0  0  0  0  0
   18.3521   -6.3549   -0.4420 H   0  0  0  0  0  0  0  0  0  0  0  0
   16.9045   -4.7526   -0.5087 C   0  0  0  0  0  0  0  0  0  0  0  0
   17.6395   -3.9605   -0.3883 H   0  0  0  0  0  0  0  0  0  0  0  0
   15.5417   -4.4247   -0.5959 C   0  0  0  0  0  0  0  0  0  0  0  0
   15.0623   -2.9897   -0.4586 C   0  0  0  0  0  0  0  0  0  0  0  0
   15.5743   -2.0662   -1.5527 C   0  0  0  0  0  0  0  0  0  0  0  0
   16.0385   -2.5679   -2.7814 C   0  0  0  0  0  0  0  0  0  0  0  0
   16.0840   -3.6414   -2.9429 H   0  0  0  0  0  0  0  0  0  0  0  0
   16.4193   -1.6970   -3.8084 C   0  0  0  0  0  0  0  0  0  0  0  0
   16.7625   -2.0922   -4.7575 H   0  0  0  0  0  0  0  0  0  0  0  0
   16.3381   -0.3150   -3.6228 C   0  0  0  0  0  0  0  0  0  0  0  0
   16.6255    0.3576   -4.4248 H   0  0  0  0  0  0  0  0  0  0  0  0
   15.8870    0.1968   -2.4041 C   0  0  0  0  0  0  0  0  0  0  0  0
   15.8153    1.2701   -2.2582 H   0  0  0  0  0  0  0  0  0  0  0  0
   15.5066   -0.6729   -1.3769 C   0  0  0  0  0  0  0  0  0  0  0  0
   15.1366   -0.2663   -0.4389 H   0  0  0  0  0  0  0  0  0  0  0  0
   13.5267   -2.8595   -0.3411 C   0  0  0  0  0  0  0  0  0  0  0  0
   12.6843   -3.1393   -1.1897 O   0  0  0  0  0  0  0  0  0  0  0  0
   13.2051   -2.4246    0.9271 N   0  0  0  0  0  0  0  0  0  0  0  0
   11.8594   -2.2590    1.4718 C   0  0  0  0  0  0  0  0  0  0  0  0
   11.1011   -2.5276    0.7282 H   0  0  0  0  0  0  0  0  0  0  0  0
   11.6925   -1.2183    1.7651 H   0  0  0  0  0  0  0  0  0  0  0  0
   11.7185   -2.8984    2.3490 H   0  0  0  0  0  0  0  0  0  0  0  0
   14.3857   -2.3171    1.6275 C   0  0  0  0  0  0  0  0  0  0  0  0
   14.4751   -2.0648    2.9600 N   0  0  0  0  0  0  0  0  0  0  0  0
   13.6276   -1.8900    3.4969 H   0  0  0  0  0  0  0  0  0  0  0  0
   15.3940   -1.9896    3.3969 H   0  0  0  0  0  0  0  0  0  0  0  0
   15.4262   -2.5336    0.8909 N   0  0  0  0  0  4  0  0  0  0  0  0
   16.3656   -2.6613    1.2722 H   0  0  0  0  0  0  0  0  0  0  0  0
   14.6098   -5.4487   -0.7849 C   0  0  0  0  0  0  0  0  0  0  0  0
   13.5582   -5.1979   -0.8712 H   0  0  0  0  0  0  0  0  0  0  0  0
  1  2  1  0
  2  3  1  0
  3  4  1  0
  3  5  1  0
  5  6  2  0
  5  7  1  0
  7  8  1  0
  7  9  1  0
  7 10  1  0
 10 11  1  0
 10 12  1  0
 10 13  1  0
 13 14  2  0
 14 15  1  0
 14 16  1  0
 16 17  1  0
 16 18  2  0
 18 19  1  0
 18 20  1  0
 20 21  1  0
 21 22  1  0
 22 23  2  0
 23 24  1  0
 23 25  1  0
 25 26  1  0
 25 27  2  0
 27 28  1  0
 27 29  1  0
 29 30  1  0
 29 31  2  0
 31 32  1  0
 21 33  1  0
 33 34  2  0
 33 35  1  0
 35 36  1  0
 36 37  1  0
 36 38  1  0
 36 39  1  0
 35 40  1  0
 40 41  1  0
 41 42  1  0
 41 43  1  0
 40 44  2  0
 44 45  1  0
 20 46  2  0
 46 47  1  0
 46 13  1  0
 44 21  1  0
 31 22  1  0
M  CHG  1  44   1
M  END
>  <score>  (482) 
4.81286

$$$$

     RDKit          3D

 43 46  0  0  0  0  0  0  0  0999 V2000
   11.8130  -10.4480   -3.1434 H   0  0  0  0  0  0  0  0  0  0  0  0
   12.1143   -9.4835   -2.7308 C   0  0  0  0  0  0  0  0  0  0  0  0
   13.4090   -9.0010   -2.7542 O   0  0  0  0  0  0  0  0  0  0  0  0
   13.4130   -7.7881   -2.0864 C   0  0  0  0  0  0  0  0  0  0  0  0
   14.5467   -6.9083   -1.7247 C   0  0  0  0  0  0  0  0  0  0  0  0
   15.8218   -7.4143   -1.4210 C   0  0  0  0  0  0  0  0  0  0  0  0
   16.0228   -8.4764   -1.5296 H   0  0  0  0  0  0  0  0  0  0  0  0
   16.8080   -6.5715   -0.8851 C   0  0  0  0  0  0  0  0  0  0  0  0
   17.7746   -6.9719   -0.5955 H   0  0  0  0  0  0  0  0  0  0  0  0
   16.5340   -5.2181   -0.6536 C   0  0  0  0  0  0  0  0  0  0  0  0
   17.2947   -4.5858   -0.2037 H   0  0  0  0  0  0  0  0  0  0  0  0
   15.2823   -4.6851   -0.9971 C   0  0  0  0  0  0  0  0  0  0  0  0
   14.8906   -3.2496   -0.7127 C   0  0  0  0  0  0  0  0  0  0  0  0
   15.4188   -2.2693   -1.7425 C   0  0  0  0  0  0  0  0  0  0  0  0
   15.9460   -2.6806   -2.9810 C   0  0  0  0  0  0  0  0  0  0  0  0
   15.9965   -3.7387   -3.2290 H   0  0  0  0  0  0  0  0  0  0  0  0
   16.4127   -1.7322   -3.9007 C   0  0  0  0  0  0  0  0  0  0  0  0
   16.8316   -2.0466   -4.8505 H   0  0  0  0  0  0  0  0  0  0  0  0
   16.3460   -0.3678   -3.5993 C   0  0  0  0  0  0  0  0  0  0  0  0
   16.7175    0.3667   -4.3077 H   0  0  0  0  0  0  0  0  0  0  0  0
   15.7959    0.0489   -2.3850 C   0  0  0  0  0  0  0  0  0  0  0  0
   15.7321    1.1055   -2.1448 H   0  0  0  0  0  0  0  0  0  0  0  0
   15.3293   -0.8962   -1.4713 C   0  0  0  0  0  0  0  0  0  0  0  0
   14.8960   -0.5674   -0.5320 H   0  0  0  0  0  0  0  0  0  0  0  0
   13.3625   -3.0759   -0.5476 C   0  0  0  0  0  0  0  0  0  0  0  0
   12.4947   -3.2510   -1.4023 O   0  0  0  0  0  0  0  0  0  0  0  0
   13.0817   -2.6816    0.7437 N   0  0  0  0  0  0  0  0  0  0  0  0
   11.7741   -2.3140    1.2880 C   0  0  0  0  0  0  0  0  0  0  0  0
   11.7654   -1.2545    1.5640 H   0  0  0  0  0  0  0  0  0  0  0  0
   11.5473   -2.9062    2.1809 H   0  0  0  0  0  0  0  0  0  0  0  0
   10.9751   -2.4845    0.5562 H   0  0  0  0  0  0  0  0  0  0  0  0
   14.2879   -2.5897    1.4000 C   0  0  0  0  0  0  0  0  0  0  0  0
   14.4651   -2.2227    2.6948 N   0  0  0  0  0  0  0  0  0  0  0  0
   13.6478   -2.1128    3.2910 H   0  0  0  0  0  0  0  0  0  0  0  0
   15.3949   -2.3062    3.1012 H   0  0  0  0  0  0  0  0  0  0  0  0
   15.2991   -2.8953    0.6561 N   0  0  0  0  0  4  0  0  0  0  0  0
   16.2576   -2.9749    0.9980 H   0  0  0  0  0  0  0  0  0  0  0  0
   14.3217   -5.5319   -1.5499 C   0  0  0  0  0  0  0  0  0  0  0  0
   13.3524   -5.1074   -1.7883 H   0  0  0  0  0  0  0  0  0  0  0  0
   12.1423   -7.4970   -1.6717 C   0  0  0  0  0  0  0  0  0  0  0  0
   11.8869   -6.6124   -1.0921 H   0  0  0  0  0  0  0  0  0  0  0  0
   11.2934   -8.5973   -2.0766 C   0  0  0  0  0  0  0  0  0  0  0  0
   10.2293   -8.7034   -1.8716 H   0  0  0  0  0  0  0  0  0  0  0  0
  1  2  1  0
  2  3  1  0
  3  4  1  0
  4  5  1  0
  5  6  2  0
  6  7  1  0
  6  8  1  0
  8  9  1  0
  8 10  2  0
 10 11  1  0
 10 12  1  0
 12 13  1  0
 13 14  1  0
 14 15  2  0
 15 16  1  0
 15 17  1  0
 17 18  1  0
 17 19  2  0
 19 20  1  0
 19 21  1  0
 21 22  1  0
 21 23  2  0
 23 24  1  0
 13 25  1  0
 25 26  2  0
 25 27  1  0
 27 28  1  0
 28 29  1  0
 28 30  1  0
 28 31  1  0
 27 32  1  0
 32 33  1  0
 33 34  1  0
 33 35  1  0
 32 36  2  0
 36 37  1  0
 12 38  2  0
 38 39  1  0
  4 40  2  0
 40 41  1  0
 40 42  1  0
 42 43  1  0
 42  2  2  0
 38  5  1  0
 36 13  1  0
 23 14  1  0
M  CHG  1  36   1
M  END
>  <score>  (483) 
4.81151

$$$$

     RDKit          3D

 42 44  0  0  0  0  0  0  0  0999 V2000
   12.3253   -9.8023   -0.5064 H   0  0  0  0  0  0  0  0  0  0  0  0
   13.1262   -9.5805   -1.0070 O   0  0  0  0  0  0  0  0  0  0  0  0
   12.8205   -8.4273   -1.6433 C   0  0  0  0  0  0  0  0  0  0  0  0
   11.7171   -7.9120   -1.5967 O   0  0  0  0  0  0  0  0  0  0  0  0
   13.8784   -7.7855   -2.5350 C   0  0  0  0  0  0  0  0  0  0  0  0
   14.4342   -8.5657   -3.0579 H   0  0  0  0  0  0  0  0  0  0  0  0
   13.4059   -7.1489   -3.2781 H   0  0  0  0  0  0  0  0  0  0  0  0
   14.8046   -6.9008   -1.7721 C   0  0  0  0  0  0  0  0  0  0  0  0
   16.0287   -7.3745   -1.3044 C   0  0  0  0  0  0  0  0  0  0  0  0
   16.2758   -8.4205   -1.4508 H   0  0  0  0  0  0  0  0  0  0  0  0
   16.9189   -6.5017   -0.6750 C   0  0  0  0  0  0  0  0  0  0  0  0
   17.8756   -6.8717   -0.3195 H   0  0  0  0  0  0  0  0  0  0  0  0
   16.5702   -5.1560   -0.5105 C   0  0  0  0  0  0  0  0  0  0  0  0
   17.2671   -4.4895   -0.0118 H   0  0  0  0  0  0  0  0  0  0  0  0
   15.3235   -4.6761   -0.9552 C   0  0  0  0  0  0  0  0  0  0  0  0
   14.8892   -3.2401   -0.7337 C   0  0  0  0  0  0  0  0  0  0  0  0
   15.4094   -2.2572   -1.7627 C   0  0  0  0  0  0  0  0  0  0  0  0
   15.9423   -2.6720   -2.9923 C   0  0  0  0  0  0  0  0  0  0  0  0
   15.9961   -3.7325   -3.2242 H   0  0  0  0  0  0  0  0  0  0  0  0
   16.4111   -1.7243   -3.9090 C   0  0  0  0  0  0  0  0  0  0  0  0
   16.8212   -2.0483   -4.8571 H   0  0  0  0  0  0  0  0  0  0  0  0
   16.3511   -0.3602   -3.6089 C   0  0  0  0  0  0  0  0  0  0  0  0
   16.7293    0.3709   -4.3166 H   0  0  0  0  0  0  0  0  0  0  0  0
   15.7947    0.0599   -2.3996 C   0  0  0  0  0  0  0  0  0  0  0  0
   15.7294    1.1157   -2.1608 H   0  0  0  0  0  0  0  0  0  0  0  0
   15.3180   -0.8833   -1.4898 C   0  0  0  0  0  0  0  0  0  0  0  0
   14.8833   -0.5514   -0.5506 H   0  0  0  0  0  0  0  0  0  0  0  0
   13.3612   -3.0846   -0.5631 C   0  0  0  0  0  0  0  0  0  0  0  0
   12.4877   -3.2254   -1.4195 O   0  0  0  0  0  0  0  0  0  0  0  0
   13.1066   -2.7203    0.7443 N   0  0  0  0  0  0  0  0  0  0  0  0
   11.8317   -2.3189    1.3354 C   0  0  0  0  0  0  0  0  0  0  0  0
   11.8258   -2.5592    2.4061 H   0  0  0  0  0  0  0  0  0  0  0  0
   11.6873   -1.2366    1.2271 H   0  0  0  0  0  0  0  0  0  0  0  0
   10.9874   -2.8395    0.8659 H   0  0  0  0  0  0  0  0  0  0  0  0
   14.3193   -2.5942    1.3741 C   0  0  0  0  0  0  0  0  0  0  0  0
   14.5055   -2.3112    2.6807 N   0  0  0  0  0  0  0  0  0  0  0  0
   15.1938   -1.5797    2.8164 H   0  0  0  0  0  0  0  0  0  0  0  0
   14.7159   -3.1469    3.2143 H   0  0  0  0  0  0  0  0  0  0  0  0
   15.3225   -2.8495    0.6107 N   0  0  0  0  0  4  0  0  0  0  0  0
   16.2718   -3.0109    0.9490 H   0  0  0  0  0  0  0  0  0  0  0  0
   14.4480   -5.5644   -1.5831 C   0  0  0  0  0  0  0  0  0  0  0  0
   13.4832   -5.2050   -1.9334 H   0  0  0  0  0  0  0  0  0  0  0  0
  1  2  1  0
  2  3  1  0
  3  4  2  0
  3  5  1  0
  5  6  1  0
  5  7  1  0
  5  8  1  0
  8  9  2  0
  9 10  1  0
  9 11  1  0
 11 12  1  0
 11 13  2  0
 13 14  1  0
 13 15  1  0
 15 16  1  0
 16 17  1  0
 17 18  2  0
 18 19  1  0
 18 20  1  0
 20 21  1  0
 20 22  2  0
 22 23  1  0
 22 24  1  0
 24 25  1  0
 24 26  2  0
 26 27  1  0
 16 28  1  0
 28 29  2  0
 28 30  1  0
 30 31  1  0
 31 32  1  0
 31 33  1  0
 31 34  1  0
 30 35  1  0
 35 36  1  0
 36 37  1  0
 36 38  1  0
 35 39  2  0
 39 40  1  0
 15 41  2  0
 41 42  1  0
 41  8  1  0
 39 16  1  0
 26 17  1  0
M  CHG  1  39   1
M  END
>  <score>  (484) 
4.80807

$$$$

     RDKit          3D

 42 45  0  0  0  0  0  0  0  0999 V2000
   10.8574   -9.6712   -2.8550 H   0  0  0  0  0  0  0  0  0  0  0  0
   11.8743   -9.4033   -2.5761 C   0  0  0  0  0  0  0  0  0  0  0  0
   12.8663  -10.2609   -2.6105 N   0  0  0  0  0  0  0  0  0  0  0  0
   13.9519   -9.5011   -2.2219 C   0  0  0  0  0  0  0  0  0  0  0  0
   14.9710   -9.8617   -2.1246 H   0  0  0  0  0  0  0  0  0  0  0  0
   13.5770   -8.2107   -1.9782 C   0  0  0  0  0  0  0  0  0  0  0  0
   14.5067   -7.1399   -1.5723 C   0  0  0  0  0  0  0  0  0  0  0  0
   15.8421   -7.4846   -1.3095 C   0  0  0  0  0  0  0  0  0  0  0  0
   16.1623   -8.5191   -1.4009 H   0  0  0  0  0  0  0  0  0  0  0  0
   16.7619   -6.5191   -0.9033 C   0  0  0  0  0  0  0  0  0  0  0  0
   17.7905   -6.7971   -0.6923 H   0  0  0  0  0  0  0  0  0  0  0  0
   16.3584   -5.1921   -0.7552 C   0  0  0  0  0  0  0  0  0  0  0  0
   17.0754   -4.4522   -0.4116 H   0  0  0  0  0  0  0  0  0  0  0  0
   15.0346   -4.8013   -1.0066 C   0  0  0  0  0  0  0  0  0  0  0  0
   14.6447   -3.3396   -0.7723 C   0  0  0  0  0  0  0  0  0  0  0  0
   15.2645   -2.3520   -1.7526 C   0  0  0  0  0  0  0  0  0  0  0  0
   15.8463   -2.7576   -2.9647 C   0  0  0  0  0  0  0  0  0  0  0  0
   15.8722   -3.8120   -3.2248 H   0  0  0  0  0  0  0  0  0  0  0  0
   16.3953   -1.8119   -3.8437 C   0  0  0  0  0  0  0  0  0  0  0  0
   16.8286   -2.1306   -4.7857 H   0  0  0  0  0  0  0  0  0  0  0  0
   16.3716   -0.4503   -3.5232 C   0  0  0  0  0  0  0  0  0  0  0  0
   16.7849    0.2827   -4.2107 H   0  0  0  0  0  0  0  0  0  0  0  0
   15.7901   -0.0337   -2.3239 C   0  0  0  0  0  0  0  0  0  0  0  0
   15.7502    1.0208   -2.0689 H   0  0  0  0  0  0  0  0  0  0  0  0
   15.2393   -0.9775   -1.4530 C   0  0  0  0  0  0  0  0  0  0  0  0
   14.7926   -0.6448   -0.5209 H   0  0  0  0  0  0  0  0  0  0  0  0
   13.1247   -3.1151   -0.6479 C   0  0  0  0  0  0  0  0  0  0  0  0
   12.2677   -3.3467   -1.4971 O   0  0  0  0  0  0  0  0  0  0  0  0
   12.8416   -2.6356    0.6169 N   0  0  0  0  0  0  0  0  0  0  0  0
   11.5099   -2.2415    1.0780 C   0  0  0  0  0  0  0  0  0  0  0  0
   11.1610   -2.8651    1.9063 H   0  0  0  0  0  0  0  0  0  0  0  0
   10.7852   -2.3570    0.2661 H   0  0  0  0  0  0  0  0  0  0  0  0
   11.5063   -1.1938    1.3933 H   0  0  0  0  0  0  0  0  0  0  0  0
   14.0449   -2.5291    1.2938 C   0  0  0  0  0  0  0  0  0  0  0  0
   14.2450   -2.1073    2.5737 N   0  0  0  0  0  0  0  0  0  0  0  0
   15.1512   -2.3295    2.9855 H   0  0  0  0  0  0  0  0  0  0  0  0
   13.4344   -2.1045    3.1871 H   0  0  0  0  0  0  0  0  0  0  0  0
   15.0465   -2.9383    0.5864 N   0  0  0  0  0  4  0  0  0  0  0  0
   16.0202   -2.9318    0.9015 H   0  0  0  0  0  0  0  0  0  0  0  0
   14.1120   -5.7908   -1.4234 C   0  0  0  0  0  0  0  0  0  0  0  0
   13.0791   -5.5152   -1.6187 H   0  0  0  0  0  0  0  0  0  0  0  0
   12.2298   -8.1412   -2.1661 O   0  0  0  0  0  0  0  0  0  0  0  0
  1  2  1  0
  2  3  2  0
  3  4  1  0
  4  5  1  0
  4  6  2  0
  6  7  1  0
  7  8  2  0
  8  9  1  0
  8 10  1  0
 10 11  1  0
 10 12  2  0
 12 13  1  0
 12 14  1  0
 14 15  1  0
 15 16  1  0
 16 17  2  0
 17 18  1  0
 17 19  1  0
 19 20  1  0
 19 21  2  0
 21 22  1  0
 21 23  1  0
 23 24  1  0
 23 25  2  0
 25 26  1  0
 15 27  1  0
 27 28  2  0
 27 29  1  0
 29 30  1  0
 30 31  1  0
 30 32  1  0
 30 33  1  0
 29 34  1  0
 34 35  1  0
 35 36  1  0
 35 37  1  0
 34 38  2  0
 38 39  1  0
 14 40  2  0
 40 41  1  0
  6 42  1  0
 42  2  1  0
 40  7  1  0
 38 15  1  0
 25 16  1  0
M  CHG  1  38   1
M  END
>  <score>  (485) 
4.80476

$$$$

     RDKit          3D

 46 49  0  0  0  0  0  0  0  0999 V2000
   13.1762  -10.8121   -3.4462 H   0  0  0  0  0  0  0  0  0  0  0  0
   13.1095   -9.8735   -2.8999 C   0  0  0  0  0  0  0  0  0  0  0  0
   14.1809   -9.0568   -2.5834 N   0  0  0  0  0  0  0  0  0  0  0  0
   13.7071   -7.9891   -1.9693 C   0  0  0  0  0  0  0  0  0  0  0  0
   14.6440   -6.9238   -1.4998 C   0  0  0  0  0  0  0  0  0  0  0  0
   15.9804   -7.2859   -1.2350 C   0  0  0  0  0  0  0  0  0  0  0  0
   16.2977   -8.3152   -1.3891 H   0  0  0  0  0  0  0  0  0  0  0  0
   16.9043   -6.3608   -0.7500 C   0  0  0  0  0  0  0  0  0  0  0  0
   17.9122   -6.6810   -0.5038 H   0  0  0  0  0  0  0  0  0  0  0  0
   16.5280   -5.0326   -0.5633 C   0  0  0  0  0  0  0  0  0  0  0  0
   17.2733   -4.3173   -0.2258 H   0  0  0  0  0  0  0  0  0  0  0  0
   15.2154   -4.6172   -0.8278 C   0  0  0  0  0  0  0  0  0  0  0  0
   14.8505   -3.1537   -0.5778 C   0  0  0  0  0  0  0  0  0  0  0  0
   15.4065   -2.1947   -1.6289 C   0  0  0  0  0  0  0  0  0  0  0  0
   15.9214   -2.6552   -2.8533 C   0  0  0  0  0  0  0  0  0  0  0  0
   15.9545   -3.7199   -3.0546 H   0  0  0  0  0  0  0  0  0  0  0  0
   16.3952   -1.7632   -3.8248 C   0  0  0  0  0  0  0  0  0  0  0  0
   16.7930   -2.1385   -4.7621 H   0  0  0  0  0  0  0  0  0  0  0  0
   16.3552   -0.3868   -3.5930 C   0  0  0  0  0  0  0  0  0  0  0  0
   16.7239    0.3039   -4.3487 H   0  0  0  0  0  0  0  0  0  0  0  0
   15.8334    0.0910   -2.3872 C   0  0  0  0  0  0  0  0  0  0  0  0
   15.7952    1.1607   -2.2052 H   0  0  0  0  0  0  0  0  0  0  0  0
   15.3614   -0.8038   -1.4161 C   0  0  0  0  0  0  0  0  0  0  0  0
   14.9571   -0.4102   -0.4872 H   0  0  0  0  0  0  0  0  0  0  0  0
   13.3396   -2.9325   -0.3966 C   0  0  0  0  0  0  0  0  0  0  0  0
   12.4540   -3.1597   -1.2204 O   0  0  0  0  0  0  0  0  0  0  0  0
   13.0830   -2.4780    0.8809 N   0  0  0  0  0  0  0  0  0  0  0  0
   11.7631   -2.2133    1.4579 C   0  0  0  0  0  0  0  0  0  0  0  0
   11.5901   -2.8350    2.3437 H   0  0  0  0  0  0  0  0  0  0  0  0
   11.6616   -1.1611    1.7425 H   0  0  0  0  0  0  0  0  0  0  0  0
   10.9721   -2.4354    0.7333 H   0  0  0  0  0  0  0  0  0  0  0  0
   14.2946   -2.4188    1.5385 C   0  0  0  0  0  0  0  0  0  0  0  0
   14.4761   -2.0728    2.8453 N   0  0  0  0  0  0  0  0  0  0  0  0
   15.4046   -2.1999    3.2485 H   0  0  0  0  0  0  0  0  0  0  0  0
   13.6660   -2.0239    3.4602 H   0  0  0  0  0  0  0  0  0  0  0  0
   15.2844   -2.7604    0.7795 N   0  0  0  0  0  4  0  0  0  0  0  0
   16.2510   -2.8375    1.1019 H   0  0  0  0  0  0  0  0  0  0  0  0
   14.2784   -5.5686   -1.3042 C   0  0  0  0  0  0  0  0  0  0  0  0
   13.2661   -5.2372   -1.5175 H   0  0  0  0  0  0  0  0  0  0  0  0
   12.3125   -8.1175   -1.8394 N   0  0  0  0  0  0  0  0  0  0  0  0
   11.3498   -7.2572   -1.1291 C   0  0  0  0  0  0  0  0  0  0  0  0
   10.4239   -7.8255   -0.9830 H   0  0  0  0  0  0  0  0  0  0  0  0
   11.7240   -6.9613   -0.1410 H   0  0  0  0  0  0  0  0  0  0  0  0
   11.1198   -6.3604   -1.7151 H   0  0  0  0  0  0  0  0  0  0  0  0
   11.9581   -9.3227   -2.4278 C   0  0  0  0  0  0  0  0  0  0  0  0
   10.9630   -9.7430   -2.5368 H   0  0  0  0  0  0  0  0  0  0  0  0
  1  2  1  0
  2  3  1  0
  3  4  2  0
  4  5  1  0
  5  6  2  0
  6  7  1  0
  6  8  1  0
  8  9  1  0
  8 10  2  0
 10 11  1  0
 10 12  1  0
 12 13  1  0
 13 14  1  0
 14 15  2  0
 15 16  1  0
 15 17  1  0
 17 18  1  0
 17 19  2  0
 19 20  1  0
 19 21  1  0
 21 22  1  0
 21 23  2  0
 23 24  1  0
 13 25  1  0
 25 26  2  0
 25 27  1  0
 27 28  1  0
 28 29  1  0
 28 30  1  0
 28 31  1  0
 27 32  1  0
 32 33  1  0
 33 34  1  0
 33 35  1  0
 32 36  2  0
 36 37  1  0
 12 38  2  0
 38 39  1  0
  4 40  1  0
 40 41  1  0
 41 42  1  0
 41 43  1  0
 41 44  1  0
 40 45  1  0
 45 46  1  0
 45  2  2  0
 38  5  1  0
 36 13  1  0
 23 14  1  0
M  CHG  1  36   1
M  END
>  <score>  (486) 
4.80037

$$$$

     RDKit          3D

 44 47  0  0  0  0  0  0  0  0999 V2000
   10.5137  -10.1301   -2.7537 H   0  0  0  0  0  0  0  0  0  0  0  0
   11.3391   -9.4530   -2.5487 C   0  0  0  0  0  0  0  0  0  0  0  0
   11.0433   -8.2342   -2.0777 N   0  0  0  0  0  0  0  0  0  0  0  0
   12.0470   -7.3954   -1.8122 C   0  0  0  0  0  0  0  0  0  0  0  0
   11.8127   -6.4237   -1.3804 H   0  0  0  0  0  0  0  0  0  0  0  0
   13.3700   -7.7555   -2.0318 C   0  0  0  0  0  0  0  0  0  0  0  0
   14.4745   -6.8517   -1.6858 C   0  0  0  0  0  0  0  0  0  0  0  0
   15.7510   -7.3586   -1.4120 C   0  0  0  0  0  0  0  0  0  0  0  0
   15.9567   -8.4136   -1.5668 H   0  0  0  0  0  0  0  0  0  0  0  0
   16.7527   -6.5185   -0.9133 C   0  0  0  0  0  0  0  0  0  0  0  0
   17.7379   -6.9113   -0.6806 H   0  0  0  0  0  0  0  0  0  0  0  0
   16.4847   -5.1626   -0.6994 C   0  0  0  0  0  0  0  0  0  0  0  0
   17.2478   -4.5189   -0.2734 H   0  0  0  0  0  0  0  0  0  0  0  0
   15.2281   -4.6240   -1.0021 C   0  0  0  0  0  0  0  0  0  0  0  0
   14.9171   -3.1604   -0.7014 C   0  0  0  0  0  0  0  0  0  0  0  0
   15.4346   -2.1721   -1.7487 C   0  0  0  0  0  0  0  0  0  0  0  0
   15.9550   -2.5927   -2.9882 C   0  0  0  0  0  0  0  0  0  0  0  0
   15.9967   -3.6508   -3.2273 H   0  0  0  0  0  0  0  0  0  0  0  0
   16.4246   -1.6633   -3.9288 C   0  0  0  0  0  0  0  0  0  0  0  0
   16.8391   -1.9975   -4.8745 H   0  0  0  0  0  0  0  0  0  0  0  0
   16.3676   -0.2954   -3.6538 C   0  0  0  0  0  0  0  0  0  0  0  0
   16.7437    0.4235   -4.3776 H   0  0  0  0  0  0  0  0  0  0  0  0
   15.8236    0.1424   -2.4437 C   0  0  0  0  0  0  0  0  0  0  0  0
   15.7687    1.2052   -2.2280 H   0  0  0  0  0  0  0  0  0  0  0  0
   15.3508   -0.7861   -1.5060 C   0  0  0  0  0  0  0  0  0  0  0  0
   14.9145   -0.4266   -0.5773 H   0  0  0  0  0  0  0  0  0  0  0  0
   13.4016   -2.9639   -0.4861 C   0  0  0  0  0  0  0  0  0  0  0  0
   12.4951   -3.1421   -1.3012 O   0  0  0  0  0  0  0  0  0  0  0  0
   13.1785   -2.5773    0.8165 N   0  0  0  0  0  0  0  0  0  0  0  0
   11.8886   -2.2467    1.4276 C   0  0  0  0  0  0  0  0  0  0  0  0
   11.6938   -1.1723    1.3420 H   0  0  0  0  0  0  0  0  0  0  0  0
   11.8958   -2.5116    2.4917 H   0  0  0  0  0  0  0  0  0  0  0  0
   11.0654   -2.7925    0.9476 H   0  0  0  0  0  0  0  0  0  0  0  0
   14.4044   -2.4832    1.4412 C   0  0  0  0  0  0  0  0  0  0  0  0
   14.5448   -2.1026    2.7464 N   0  0  0  0  0  0  0  0  0  0  0  0
   15.4647   -2.1787    3.1735 H   0  0  0  0  0  0  0  0  0  0  0  0
   13.7234   -2.1517    3.3459 H   0  0  0  0  0  0  0  0  0  0  0  0
   15.3913   -2.8027    0.6598 N   0  0  0  0  0  4  0  0  0  0  0  0
   16.3787   -2.7385    0.9276 H   0  0  0  0  0  0  0  0  0  0  0  0
   14.2422   -5.4793   -1.5316 C   0  0  0  0  0  0  0  0  0  0  0  0
   13.2619   -5.0956   -1.7942 H   0  0  0  0  0  0  0  0  0  0  0  0
   13.5909   -9.0498   -2.4893 C   0  0  0  0  0  0  0  0  0  0  0  0
   14.6116   -9.4063   -2.6008 H   0  0  0  0  0  0  0  0  0  0  0  0
   12.5856   -9.8842   -2.7647 N   0  0  0  0  0  0  0  0  0  0  0  0
  1  2  1  0
  2  3  2  0
  3  4  1  0
  4  5  1  0
  4  6  2  0
  6  7  1  0
  7  8  2  0
  8  9  1  0
  8 10  1  0
 10 11  1  0
 10 12  2  0
 12 13  1  0
 12 14  1  0
 14 15  1  0
 15 16  1  0
 16 17  2  0
 17 18  1  0
 17 19  1  0
 19 20  1  0
 19 21  2  0
 21 22  1  0
 21 23  1  0
 23 24  1  0
 23 25  2  0
 25 26  1  0
 15 27  1  0
 27 28  2  0
 27 29  1  0
 29 30  1  0
 30 31  1  0
 30 32  1  0
 30 33  1  0
 29 34  1  0
 34 35  1  0
 35 36  1  0
 35 37  1  0
 34 38  2  0
 38 39  1  0
 14 40  2  0
 40 41  1  0
  6 42  1  0
 42 43  1  0
 42 44  2  0
 44  2  1  0
 40  7  1  0
 38 15  1  0
 25 16  1  0
M  CHG  1  38   1
M  END
>  <score>  (487) 
4.79905

$$$$

     RDKit          3D

 44 46  0  0  0  0  0  0  0  0999 V2000
   10.7444   -8.8389   -1.1707 H   0  0  0  0  0  0  0  0  0  0  0  0
   11.4716   -8.9474   -1.7973 O   0  0  0  0  0  0  0  0  0  0  0  0
   12.5853   -8.0759   -1.0769 P   0  0  0  0  0  0  0  0  0  0  0  0
   11.8802   -6.8122   -0.7645 O   0  0  0  0  0  0  0  0  0  0  0  0
   12.7140   -8.8695    0.2917 O   0  0  0  0  0  0  0  0  0  0  0  0
   11.7876   -8.8878    0.5636 H   0  0  0  0  0  0  0  0  0  0  0  0
   14.2347   -7.8487   -2.0325 C   0  0  0  0  0  0  0  0  0  0  0  0
   14.0151   -7.4495   -3.3246 F   0  0  0  0  0  0  0  0  0  0  0  0
   14.8776   -9.0557   -2.0957 F   0  0  0  0  0  0  0  0  0  0  0  0
   15.1517   -6.8131   -1.3903 C   0  0  0  0  0  0  0  0  0  0  0  0
   16.4703   -7.1356   -1.0190 C   0  0  0  0  0  0  0  0  0  0  0  0
   16.8402   -8.1530   -1.1348 H   0  0  0  0  0  0  0  0  0  0  0  0
   17.3250   -6.1569   -0.5036 C   0  0  0  0  0  0  0  0  0  0  0  0
   18.3467   -6.4038   -0.2185 H   0  0  0  0  0  0  0  0  0  0  0  0
   16.8668   -4.8463   -0.3623 C   0  0  0  0  0  0  0  0  0  0  0  0
   17.5529   -4.0858   -0.0074 H   0  0  0  0  0  0  0  0  0  0  0  0
   15.5470   -4.5001   -0.6804 C   0  0  0  0  0  0  0  0  0  0  0  0
   15.0662   -3.0707   -0.4712 C   0  0  0  0  0  0  0  0  0  0  0  0
   15.5721   -2.1283   -1.5573 C   0  0  0  0  0  0  0  0  0  0  0  0
   16.0394   -2.6261   -2.7861 C   0  0  0  0  0  0  0  0  0  0  0  0
   16.0832   -3.6993   -2.9438 H   0  0  0  0  0  0  0  0  0  0  0  0
   16.4324   -1.7580   -3.8092 C   0  0  0  0  0  0  0  0  0  0  0  0
   16.7781   -2.1588   -4.7528 H   0  0  0  0  0  0  0  0  0  0  0  0
   16.3730   -0.3768   -3.6220 C   0  0  0  0  0  0  0  0  0  0  0  0
   16.6681    0.2911   -4.4275 H   0  0  0  0  0  0  0  0  0  0  0  0
   15.9049    0.1329   -2.4094 C   0  0  0  0  0  0  0  0  0  0  0  0
   15.8477    1.2068   -2.2690 H   0  0  0  0  0  0  0  0  0  0  0  0
   15.5060   -0.7345   -1.3841 C   0  0  0  0  0  0  0  0  0  0  0  0
   15.1335   -0.3155   -0.4526 H   0  0  0  0  0  0  0  0  0  0  0  0
   13.5337   -2.9827   -0.3110 C   0  0  0  0  0  0  0  0  0  0  0  0
   12.6975   -3.1609   -1.1915 O   0  0  0  0  0  0  0  0  0  0  0  0
   13.2231   -2.6368    0.9883 N   0  0  0  0  0  0  0  0  0  0  0  0
   11.9103   -2.3151    1.5386 C   0  0  0  0  0  0  0  0  0  0  0  0
   11.7294   -1.2381    1.4638 H   0  0  0  0  0  0  0  0  0  0  0  0
   11.1034   -2.8448    1.0164 H   0  0  0  0  0  0  0  0  0  0  0  0
   11.8690   -2.5982    2.5946 H   0  0  0  0  0  0  0  0  0  0  0  0
   14.4125   -2.4321    1.6411 C   0  0  0  0  0  0  0  0  0  0  0  0
   14.5110   -2.0828    2.9489 N   0  0  0  0  0  0  0  0  0  0  0  0
   13.6735   -2.1791    3.5241 H   0  0  0  0  0  0  0  0  0  0  0  0
   15.4221   -2.1619    3.3943 H   0  0  0  0  0  0  0  0  0  0  0  0
   15.4398   -2.6229    0.8845 N   0  0  0  0  0  4  0  0  0  0  0  0
   16.3935   -2.6302    1.2410 H   0  0  0  0  0  0  0  0  0  0  0  0
   14.6958   -5.4951   -1.1954 C   0  0  0  0  0  0  0  0  0  0  0  0
   13.6792   -5.2292   -1.4718 H   0  0  0  0  0  0  0  0  0  0  0  0
  1  2  1  0
  2  3  1  0
  3  4  2  0
  3  5  1  0
  5  6  1  0
  3  7  1  0
  7  8  1  0
  7  9  1  0
  7 10  1  0
 10 11  2  0
 11 12  1  0
 11 13  1  0
 13 14  1  0
 13 15  2  0
 15 16  1  0
 15 17  1  0
 17 18  1  0
 18 19  1  0
 19 20  2  0
 20 21  1  0
 20 22  1  0
 22 23  1  0
 22 24  2  0
 24 25  1  0
 24 26  1  0
 26 27  1  0
 26 28  2  0
 28 29  1  0
 18 30  1  0
 30 31  2  0
 30 32  1  0
 32 33  1  0
 33 34  1  0
 33 35  1  0
 33 36  1  0
 32 37  1  0
 37 38  1  0
 38 39  1  0
 38 40  1  0
 37 41  2  0
 41 42  1  0
 17 43  2  0
 43 44  1  0
 43 10  1  0
 41 18  1  0
 28 19  1  0
M  CHG  1  41   1
M  END
>  <score>  (488) 
4.79591

$$$$

     RDKit          3D

 43 46  0  0  0  0  0  0  0  0999 V2000
   10.5429   -9.1954   -2.6032 H   0  0  0  0  0  0  0  0  0  0  0  0
   11.6019   -9.0781   -2.4286 C   0  0  0  0  0  0  0  0  0  0  0  0
   12.7424  -10.3742   -2.7092 S   0  0  0  0  0  0  0  0  0  0  0  0
   14.0538   -9.2609   -2.3689 C   0  0  0  0  0  0  0  0  0  0  0  0
   15.0994   -9.5263   -2.4020 H   0  0  0  0  0  0  0  0  0  0  0  0
   13.6516   -7.9918   -2.0416 C   0  0  0  0  0  0  0  0  0  0  0  0
   14.6218   -6.9465   -1.6466 C   0  0  0  0  0  0  0  0  0  0  0  0
   15.9234   -7.3400   -1.2852 C   0  0  0  0  0  0  0  0  0  0  0  0
   16.2202   -8.3778   -1.3972 H   0  0  0  0  0  0  0  0  0  0  0  0
   16.8413   -6.4271   -0.7613 C   0  0  0  0  0  0  0  0  0  0  0  0
   17.8328   -6.7552   -0.4535 H   0  0  0  0  0  0  0  0  0  0  0  0
   16.4671   -5.0976   -0.5854 C   0  0  0  0  0  0  0  0  0  0  0  0
   17.1640   -4.4113   -0.1088 H   0  0  0  0  0  0  0  0  0  0  0  0
   15.1978   -4.6479   -0.9779 C   0  0  0  0  0  0  0  0  0  0  0  0
   14.8369   -3.1847   -0.7235 C   0  0  0  0  0  0  0  0  0  0  0  0
   15.3980   -2.1975   -1.7469 C   0  0  0  0  0  0  0  0  0  0  0  0
   15.9381   -2.6194   -2.9757 C   0  0  0  0  0  0  0  0  0  0  0  0
   15.9871   -3.6783   -3.2083 H   0  0  0  0  0  0  0  0  0  0  0  0
   16.4163   -1.6883   -3.9096 C   0  0  0  0  0  0  0  0  0  0  0  0
   16.8342   -2.0236   -4.8536 H   0  0  0  0  0  0  0  0  0  0  0  0
   16.3586   -0.3200   -3.6310 C   0  0  0  0  0  0  0  0  0  0  0  0
   16.7322    0.4009   -4.3526 H   0  0  0  0  0  0  0  0  0  0  0  0
   15.8108    0.1189   -2.4231 C   0  0  0  0  0  0  0  0  0  0  0  0
   15.7554    1.1810   -2.2016 H   0  0  0  0  0  0  0  0  0  0  0  0
   15.3310   -0.8128   -1.4937 C   0  0  0  0  0  0  0  0  0  0  0  0
   14.9040   -0.4566   -0.5595 H   0  0  0  0  0  0  0  0  0  0  0  0
   13.3233   -2.9794   -0.5561 C   0  0  0  0  0  0  0  0  0  0  0  0
   12.4609   -3.1238   -1.4224 O   0  0  0  0  0  0  0  0  0  0  0  0
   13.0494   -2.6158    0.7463 N   0  0  0  0  0  0  0  0  0  0  0  0
   11.7355   -2.2955    1.3007 C   0  0  0  0  0  0  0  0  0  0  0  0
   11.6902   -1.2408    1.5907 H   0  0  0  0  0  0  0  0  0  0  0  0
   11.5243   -2.9114    2.1812 H   0  0  0  0  0  0  0  0  0  0  0  0
   10.9460   -2.4783    0.5632 H   0  0  0  0  0  0  0  0  0  0  0  0
   14.2517   -2.5606    1.4171 C   0  0  0  0  0  0  0  0  0  0  0  0
   14.4212   -2.3021    2.7463 N   0  0  0  0  0  0  0  0  0  0  0  0
   13.6106   -2.1057    3.3336 H   0  0  0  0  0  0  0  0  0  0  0  0
   15.3639   -2.2755    3.1319 H   0  0  0  0  0  0  0  0  0  0  0  0
   15.2593   -2.8134    0.6481 N   0  0  0  0  0  4  0  0  0  0  0  0
   16.2146   -2.9194    0.9958 H   0  0  0  0  0  0  0  0  0  0  0  0
   14.2859   -5.5818   -1.5287 C   0  0  0  0  0  0  0  0  0  0  0  0
   13.3073   -5.2435   -1.8511 H   0  0  0  0  0  0  0  0  0  0  0  0
   12.1993   -7.8969   -2.0641 C   0  0  0  0  0  0  0  0  0  0  0  0
   11.6469   -6.9865   -1.8695 H   0  0  0  0  0  0  0  0  0  0  0  0
  1  2  1  0
  2  3  1  0
  3  4  1  0
  4  5  1  0
  4  6  2  0
  6  7  1  0
  7  8  2  0
  8  9  1  0
  8 10  1  0
 10 11  1  0
 10 12  2  0
 12 13  1  0
 12 14  1  0
 14 15  1  0
 15 16  1  0
 16 17  2  0
 17 18  1  0
 17 19  1  0
 19 20  1  0
 19 21  2  0
 21 22  1  0
 21 23  1  0
 23 24  1  0
 23 25  2  0
 25 26  1  0
 15 27  1  0
 27 28  2  0
 27 29  1  0
 29 30  1  0
 30 31  1  0
 30 32  1  0
 30 33  1  0
 29 34  1  0
 34 35  1  0
 35 36  1  0
 35 37  1  0
 34 38  2  0
 38 39  1  0
 14 40  2  0
 40 41  1  0
  6 42  1  0
 42 43  1  0
 42  2  2  0
 40  7  1  0
 38 15  1  0
 25 16  1  0
M  CHG  1  38   1
M  END
>  <score>  (489) 
4.79338

$$$$

     RDKit          3D

 46 49  0  0  0  0  0  0  0  0999 V2000
   10.6429  -10.2036   -3.0478 H   0  0  0  0  0  0  0  0  0  0  0  0
   11.4065   -9.5284   -2.6717 C   0  0  0  0  0  0  0  0  0  0  0  0
   11.0554   -8.3069   -2.0892 C   0  0  0  0  0  0  0  0  0  0  0  0
   10.0111   -8.0256   -2.0014 H   0  0  0  0  0  0  0  0  0  0  0  0
   12.0535   -7.4099   -1.6776 C   0  0  0  0  0  0  0  0  0  0  0  0
   11.7765   -6.4406   -1.2785 H   0  0  0  0  0  0  0  0  0  0  0  0
   13.4140   -7.7383   -1.8229 C   0  0  0  0  0  0  0  0  0  0  0  0
   14.4832   -6.7994   -1.4149 C   0  0  0  0  0  0  0  0  0  0  0  0
   15.8062   -7.2420   -1.2258 C   0  0  0  0  0  0  0  0  0  0  0  0
   16.0503   -8.2913   -1.3547 H   0  0  0  0  0  0  0  0  0  0  0  0
   16.8154   -6.3517   -0.8437 C   0  0  0  0  0  0  0  0  0  0  0  0
   17.8321   -6.7020   -0.6884 H   0  0  0  0  0  0  0  0  0  0  0  0
   16.5238   -4.9950   -0.6803 C   0  0  0  0  0  0  0  0  0  0  0  0
   17.3087   -4.2931   -0.4124 H   0  0  0  0  0  0  0  0  0  0  0  0
   15.2129   -4.5248   -0.8448 C   0  0  0  0  0  0  0  0  0  0  0  0
   14.8863   -3.0507   -0.6303 C   0  0  0  0  0  0  0  0  0  0  0  0
   15.4467   -2.1063   -1.6900 C   0  0  0  0  0  0  0  0  0  0  0  0
   15.9713   -2.5757   -2.9076 C   0  0  0  0  0  0  0  0  0  0  0  0
   16.0095   -3.6426   -3.1030 H   0  0  0  0  0  0  0  0  0  0  0  0
   16.4439   -1.6782   -3.8758 C   0  0  0  0  0  0  0  0  0  0  0  0
   16.8443   -2.0499   -4.8128 H   0  0  0  0  0  0  0  0  0  0  0  0
   16.3997   -0.2998   -3.6462 C   0  0  0  0  0  0  0  0  0  0  0  0
   16.7663    0.3934   -4.3994 H   0  0  0  0  0  0  0  0  0  0  0  0
   15.8878    0.1814   -2.4376 C   0  0  0  0  0  0  0  0  0  0  0  0
   15.8539    1.2494   -2.2423 H   0  0  0  0  0  0  0  0  0  0  0  0
   15.4121   -0.7169   -1.4747 C   0  0  0  0  0  0  0  0  0  0  0  0
   15.0109   -0.3332   -0.5403 H   0  0  0  0  0  0  0  0  0  0  0  0
   13.3741   -2.8173   -0.4149 C   0  0  0  0  0  0  0  0  0  0  0  0
   12.4724   -2.9326   -1.2473 O   0  0  0  0  0  0  0  0  0  0  0  0
   13.1511   -2.5235    0.9130 N   0  0  0  0  0  0  0  0  0  0  0  0
   11.8829   -2.2055    1.5676 C   0  0  0  0  0  0  0  0  0  0  0  0
   11.0508   -2.7358    1.0901 H   0  0  0  0  0  0  0  0  0  0  0  0
   11.6883   -1.1263    1.5251 H   0  0  0  0  0  0  0  0  0  0  0  0
   11.9175   -2.5132    2.6194 H   0  0  0  0  0  0  0  0  0  0  0  0
   14.3824   -2.4461    1.5117 C   0  0  0  0  0  0  0  0  0  0  0  0
   14.5890   -2.2067    2.8250 N   0  0  0  0  0  0  0  0  0  0  0  0
   13.8274   -2.4335    3.4577 H   0  0  0  0  0  0  0  0  0  0  0  0
   15.5395   -2.3571    3.1381 H   0  0  0  0  0  0  0  0  0  0  0  0
   15.3667   -2.6754    0.7091 N   0  0  0  0  0  4  0  0  0  0  0  0
   16.3354   -2.8043    1.0058 H   0  0  0  0  0  0  0  0  0  0  0  0
   14.2017   -5.4413   -1.1892 C   0  0  0  0  0  0  0  0  0  0  0  0
   13.1759   -5.0956   -1.2810 H   0  0  0  0  0  0  0  0  0  0  0  0
   13.7417   -8.9743   -2.3949 C   0  0  0  0  0  0  0  0  0  0  0  0
   14.7842   -9.2355   -2.5111 H   0  0  0  0  0  0  0  0  0  0  0  0
   12.7508   -9.8588   -2.8408 C   0  0  0  0  0  0  0  0  0  0  0  0
   13.0202  -10.7832   -3.3373 H   0  0  0  0  0  0  0  0  0  0  0  0
  1  2  1  0
  2  3  2  0
  3  4  1  0
  3  5  1  0
  5  6  1  0
  5  7  2  0
  7  8  1  0
  8  9  2  0
  9 10  1  0
  9 11  1  0
 11 12  1  0
 11 13  2  0
 13 14  1  0
 13 15  1  0
 15 16  1  0
 16 17  1  0
 17 18  2  0
 18 19  1  0
 18 20  1  0
 20 21  1  0
 20 22  2  0
 22 23  1  0
 22 24  1  0
 24 25  1  0
 24 26  2  0
 26 27  1  0
 16 28  1  0
 28 29  2  0
 28 30  1  0
 30 31  1  0
 31 32  1  0
 31 33  1  0
 31 34  1  0
 30 35  1  0
 35 36  1  0
 36 37  1  0
 36 38  1  0
 35 39  2  0
 39 40  1  0
 15 41  2  0
 41 42  1  0
  7 43  1  0
 43 44  1  0
 43 45  2  0
 45 46  1  0
 45  2  1  0
 41  8  1  0
 39 16  1  0
 26 17  1  0
M  CHG  1  39   1
M  END
>  <score>  (490) 
4.7885

$$$$

     RDKit          3D

 47 49  0  0  0  0  0  0  0  0999 V2000
    9.1854  -10.1787   -3.5398 H   0  0  0  0  0  0  0  0  0  0  0  0
    8.9296   -9.2425   -3.5585 O   0  0  0  0  0  0  0  0  0  0  0  0
    9.6697   -8.4936   -2.5828 C   0  0  0  0  0  0  0  0  0  0  0  0
    9.2223   -8.5671   -1.5891 H   0  0  0  0  0  0  0  0  0  0  0  0
    9.6285   -7.4370   -2.8423 H   0  0  0  0  0  0  0  0  0  0  0  0
   11.1273   -8.9887   -2.5363 C   0  0  0  0  0  0  0  0  0  0  0  0
   11.3961   -9.3630   -3.5356 H   0  0  0  0  0  0  0  0  0  0  0  0
   11.2082   -9.8397   -1.8530 H   0  0  0  0  0  0  0  0  0  0  0  0
   12.0670   -7.9353   -2.1037 N   0  0  0  0  0  0  0  0  0  0  0  0
   11.7428   -7.2065   -1.4777 H   0  0  0  0  0  0  0  0  0  0  0  0
   13.4332   -8.0113   -2.3384 C   0  0  0  0  0  0  0  0  0  0  0  0
   13.8418   -9.0112   -2.9233 O   0  0  0  0  0  0  0  0  0  0  0  0
   14.4064   -7.0296   -1.8138 C   0  0  0  0  0  0  0  0  0  0  0  0
   15.6863   -7.4896   -1.4523 C   0  0  0  0  0  0  0  0  0  0  0  0
   15.9458   -8.5387   -1.5781 H   0  0  0  0  0  0  0  0  0  0  0  0
   16.6308   -6.6371   -0.8887 C   0  0  0  0  0  0  0  0  0  0  0  0
   17.6058   -7.0104   -0.5870 H   0  0  0  0  0  0  0  0  0  0  0  0
   16.3218   -5.2930   -0.6857 C   0  0  0  0  0  0  0  0  0  0  0  0
   17.0539   -4.6351   -0.2243 H   0  0  0  0  0  0  0  0  0  0  0  0
   15.0710   -4.7780   -1.0567 C   0  0  0  0  0  0  0  0  0  0  0  0
   14.7771   -3.3024   -0.7605 C   0  0  0  0  0  0  0  0  0  0  0  0
   15.3656   -2.2991   -1.7577 C   0  0  0  0  0  0  0  0  0  0  0  0
   15.9284   -2.6923   -2.9866 C   0  0  0  0  0  0  0  0  0  0  0  0
   15.9866   -3.7445   -3.2449 H   0  0  0  0  0  0  0  0  0  0  0  0
   16.4124   -1.7396   -3.8979 C   0  0  0  0  0  0  0  0  0  0  0  0
   16.8389   -2.0498   -4.8466 H   0  0  0  0  0  0  0  0  0  0  0  0
   16.3468   -0.3768   -3.5967 C   0  0  0  0  0  0  0  0  0  0  0  0
   16.7210    0.3608   -4.3028 H   0  0  0  0  0  0  0  0  0  0  0  0
   15.7927    0.0334   -2.3829 C   0  0  0  0  0  0  0  0  0  0  0  0
   15.7366    1.0919   -2.1442 H   0  0  0  0  0  0  0  0  0  0  0  0
   15.3055   -0.9176   -1.4767 C   0  0  0  0  0  0  0  0  0  0  0  0
   14.8732   -0.5731   -0.5414 H   0  0  0  0  0  0  0  0  0  0  0  0
   13.2722   -3.0454   -0.5723 C   0  0  0  0  0  0  0  0  0  0  0  0
   12.3896   -3.1866   -1.4178 O   0  0  0  0  0  0  0  0  0  0  0  0
   13.0359   -2.6585    0.7307 N   0  0  0  0  0  0  0  0  0  0  0  0
   11.7417   -2.2985    1.2991 C   0  0  0  0  0  0  0  0  0  0  0  0
   11.7281   -1.2409    1.5808 H   0  0  0  0  0  0  0  0  0  0  0  0
   11.5306   -2.9039    2.1866 H   0  0  0  0  0  0  0  0  0  0  0  0
   10.9378   -2.4681    0.5736 H   0  0  0  0  0  0  0  0  0  0  0  0
   14.2526   -2.6167    1.3781 C   0  0  0  0  0  0  0  0  0  0  0  0
   14.4462   -2.2459    2.6762 N   0  0  0  0  0  0  0  0  0  0  0  0
   15.3830   -2.3154    3.0739 H   0  0  0  0  0  0  0  0  0  0  0  0
   13.6389   -2.1074    3.2812 H   0  0  0  0  0  0  0  0  0  0  0  0
   15.2290   -2.9720    0.6110 N   0  0  0  0  0  4  0  0  0  0  0  0
   16.2047   -3.0199    0.9162 H   0  0  0  0  0  0  0  0  0  0  0  0
   14.1148   -5.6545   -1.6289 C   0  0  0  0  0  0  0  0  0  0  0  0
   13.1358   -5.2728   -1.9113 H   0  0  0  0  0  0  0  0  0  0  0  0
  1  2  1  0
  2  3  1  0
  3  4  1  0
  3  5  1  0
  3  6  1  0
  6  7  1  0
  6  8  1  0
  6  9  1  0
  9 10  1  0
  9 11  1  0
 11 12  2  0
 11 13  1  0
 13 14  2  0
 14 15  1  0
 14 16  1  0
 16 17  1  0
 16 18  2  0
 18 19  1  0
 18 20  1  0
 20 21  1  0
 21 22  1  0
 22 23  2  0
 23 24  1  0
 23 25  1  0
 25 26  1  0
 25 27  2  0
 27 28  1  0
 27 29  1  0
 29 30  1  0
 29 31  2  0
 31 32  1  0
 21 33  1  0
 33 34  2  0
 33 35  1  0
 35 36  1  0
 36 37  1  0
 36 38  1  0
 36 39  1  0
 35 40  1  0
 40 41  1  0
 41 42  1  0
 41 43  1  0
 40 44  2  0
 44 45  1  0
 20 46  2  0
 46 47  1  0
 46 13  1  0
 44 21  1  0
 31 22  1  0
M  CHG  1  44   1
M  END
>  <score>  (491) 
4.78589

$$$$

     RDKit          3D

 44 47  0  0  0  0  0  0  0  0999 V2000
   10.7378  -10.3389   -3.0835 H   0  0  0  0  0  0  0  0  0  0  0  0
   11.5205   -9.6479   -2.7770 C   0  0  0  0  0  0  0  0  0  0  0  0
   12.8082  -10.0127   -2.9268 N   0  0  0  0  0  0  0  0  0  0  0  0
   13.7251   -9.0963   -2.5361 C   0  0  0  0  0  0  0  0  0  0  0  0
   14.7779   -9.3424   -2.5953 H   0  0  0  0  0  0  0  0  0  0  0  0
   13.3813   -7.8161   -2.0361 C   0  0  0  0  0  0  0  0  0  0  0  0
   14.4529   -6.8803   -1.6341 C   0  0  0  0  0  0  0  0  0  0  0  0
   15.7430   -7.3630   -1.3316 C   0  0  0  0  0  0  0  0  0  0  0  0
   15.9699   -8.4224   -1.4160 H   0  0  0  0  0  0  0  0  0  0  0  0
   16.7326   -6.4919   -0.8705 C   0  0  0  0  0  0  0  0  0  0  0  0
   17.7109   -6.8667   -0.5820 H   0  0  0  0  0  0  0  0  0  0  0  0
   16.4531   -5.1360   -0.7245 C   0  0  0  0  0  0  0  0  0  0  0  0
   17.2101   -4.4742   -0.3166 H   0  0  0  0  0  0  0  0  0  0  0  0
   15.1837   -4.6237   -1.0176 C   0  0  0  0  0  0  0  0  0  0  0  0
   14.8892   -3.1628   -0.7213 C   0  0  0  0  0  0  0  0  0  0  0  0
   15.4448   -2.1758   -1.7477 C   0  0  0  0  0  0  0  0  0  0  0  0
   15.9724   -2.6010   -2.9791 C   0  0  0  0  0  0  0  0  0  0  0  0
   16.0107   -3.6606   -3.2106 H   0  0  0  0  0  0  0  0  0  0  0  0
   16.4379   -1.6748   -3.9240 C   0  0  0  0  0  0  0  0  0  0  0  0
   16.8399   -2.0152   -4.8719 H   0  0  0  0  0  0  0  0  0  0  0  0
   16.3784   -0.3048   -3.6584 C   0  0  0  0  0  0  0  0  0  0  0  0
   16.7403    0.4101   -4.3942 H   0  0  0  0  0  0  0  0  0  0  0  0
   15.8424    0.1369   -2.4467 C   0  0  0  0  0  0  0  0  0  0  0  0
   15.7820    1.2020   -2.2437 H   0  0  0  0  0  0  0  0  0  0  0  0
   15.3774   -0.7897   -1.5026 C   0  0  0  0  0  0  0  0  0  0  0  0
   14.9499   -0.4218   -0.5746 H   0  0  0  0  0  0  0  0  0  0  0  0
   13.3918   -2.8992   -0.4923 C   0  0  0  0  0  0  0  0  0  0  0  0
   12.4776   -2.9747   -1.3112 O   0  0  0  0  0  0  0  0  0  0  0  0
   13.2020   -2.5454    0.8222 N   0  0  0  0  0  0  0  0  0  0  0  0
   11.9166   -2.2834    1.4481 C   0  0  0  0  0  0  0  0  0  0  0  0
   11.9173   -2.5698    2.5035 H   0  0  0  0  0  0  0  0  0  0  0  0
   11.1330   -2.8586    0.9494 H   0  0  0  0  0  0  0  0  0  0  0  0
   11.6880   -1.2184    1.3717 H   0  0  0  0  0  0  0  0  0  0  0  0
   14.4135   -2.6186    1.4636 C   0  0  0  0  0  0  0  0  0  0  0  0
   14.5670   -2.4568    2.8089 N   0  0  0  0  0  0  0  0  0  0  0  0
   13.8403   -1.9507    3.3132 H   0  0  0  0  0  0  0  0  0  0  0  0
   15.5137   -2.4635    3.1819 H   0  0  0  0  0  0  0  0  0  0  0  0
   15.3800   -2.8837    0.6466 N   0  0  0  0  0  4  0  0  0  0  0  0
   16.3132   -3.1523    0.9698 H   0  0  0  0  0  0  0  0  0  0  0  0
   14.1943   -5.5056   -1.4821 C   0  0  0  0  0  0  0  0  0  0  0  0
   13.1966   -5.1264   -1.6940 H   0  0  0  0  0  0  0  0  0  0  0  0
   12.0802   -7.4719   -1.8740 N   0  0  0  0  0  0  0  0  0  0  0  0
   11.1607   -8.3974   -2.2212 C   0  0  0  0  0  0  0  0  0  0  0  0
   10.1106   -8.1661   -2.0913 H   0  0  0  0  0  0  0  0  0  0  0  0
  1  2  1  0
  2  3  2  0
  3  4  1  0
  4  5  1  0
  4  6  2  0
  6  7  1  0
  7  8  2  0
  8  9  1  0
  8 10  1  0
 10 11  1  0
 10 12  2  0
 12 13  1  0
 12 14  1  0
 14 15  1  0
 15 16  1  0
 16 17  2  0
 17 18  1  0
 17 19  1  0
 19 20  1  0
 19 21  2  0
 21 22  1  0
 21 23  1  0
 23 24  1  0
 23 25  2  0
 25 26  1  0
 15 27  1  0
 27 28  2  0
 27 29  1  0
 29 30  1  0
 30 31  1  0
 30 32  1  0
 30 33  1  0
 29 34  1  0
 34 35  1  0
 35 36  1  0
 35 37  1  0
 34 38  2  0
 38 39  1  0
 14 40  2  0
 40 41  1  0
  6 42  1  0
 42 43  2  0
 43 44  1  0
 43  2  1  0
 40  7  1  0
 38 15  1  0
 25 16  1  0
M  CHG  1  38   1
M  END
>  <score>  (492) 
4.7855

$$$$

     RDKit          3D

 45 48  0  0  0  0  0  0  0  0999 V2000
    9.0713   -9.0141   -2.5250 H   0  0  0  0  0  0  0  0  0  0  0  0
    9.9724   -8.4749   -2.2404 C   0  0  0  0  0  0  0  0  0  0  0  0
   11.2472   -8.8406   -2.5853 O   0  0  0  0  0  0  0  0  0  0  0  0
   12.1260   -7.9296   -2.0176 C   0  0  0  0  0  0  0  0  0  0  0  0
   13.5993   -8.0290   -2.1674 C   0  0  0  0  0  0  0  0  0  0  0  0
   14.0500   -9.0143   -2.7520 O   0  0  0  0  0  0  0  0  0  0  0  0
   14.5579   -7.0271   -1.6361 C   0  0  0  0  0  0  0  0  0  0  0  0
   15.8698   -7.4345   -1.3247 C   0  0  0  0  0  0  0  0  0  0  0  0
   16.1660   -8.4700   -1.4758 H   0  0  0  0  0  0  0  0  0  0  0  0
   16.7985   -6.5335   -0.8047 C   0  0  0  0  0  0  0  0  0  0  0  0
   17.7998   -6.8694   -0.5460 H   0  0  0  0  0  0  0  0  0  0  0  0
   16.4357   -5.2009   -0.5999 C   0  0  0  0  0  0  0  0  0  0  0  0
   17.1636   -4.5177   -0.1707 H   0  0  0  0  0  0  0  0  0  0  0  0
   15.1409   -4.7477   -0.9070 C   0  0  0  0  0  0  0  0  0  0  0  0
   14.7647   -3.2868   -0.6441 C   0  0  0  0  0  0  0  0  0  0  0  0
   15.3710   -2.3137   -1.6506 C   0  0  0  0  0  0  0  0  0  0  0  0
   15.9158   -2.7406   -2.8778 C   0  0  0  0  0  0  0  0  0  0  0  0
   15.9537   -3.7998   -3.1188 H   0  0  0  0  0  0  0  0  0  0  0  0
   16.3954   -1.8075   -3.8073 C   0  0  0  0  0  0  0  0  0  0  0  0
   16.8034   -2.1374   -4.7557 H   0  0  0  0  0  0  0  0  0  0  0  0
   16.3366   -0.4397   -3.5259 C   0  0  0  0  0  0  0  0  0  0  0  0
   16.7015    0.2841   -4.2483 H   0  0  0  0  0  0  0  0  0  0  0  0
   15.8016   -0.0049   -2.3132 C   0  0  0  0  0  0  0  0  0  0  0  0
   15.7440    1.0550   -2.0880 H   0  0  0  0  0  0  0  0  0  0  0  0
   15.3223   -0.9335   -1.3867 C   0  0  0  0  0  0  0  0  0  0  0  0
   14.8928   -0.5847   -0.4514 H   0  0  0  0  0  0  0  0  0  0  0  0
   13.2444   -3.0433   -0.5270 C   0  0  0  0  0  0  0  0  0  0  0  0
   12.3906   -3.3220   -1.3661 O   0  0  0  0  0  0  0  0  0  0  0  0
   12.9514   -2.4986    0.7087 N   0  0  0  0  0  0  0  0  0  0  0  0
   11.6043   -2.2454    1.2192 C   0  0  0  0  0  0  0  0  0  0  0  0
   11.4963   -1.2109    1.5625 H   0  0  0  0  0  0  0  0  0  0  0  0
   10.8632   -2.4180    0.4284 H   0  0  0  0  0  0  0  0  0  0  0  0
   11.3775   -2.9181    2.0532 H   0  0  0  0  0  0  0  0  0  0  0  0
   14.1370   -2.4719    1.4215 C   0  0  0  0  0  0  0  0  0  0  0  0
   14.3385   -2.0681    2.7076 N   0  0  0  0  0  0  0  0  0  0  0  0
   15.2666   -2.2018    3.1037 H   0  0  0  0  0  0  0  0  0  0  0  0
   13.5433   -1.9366    3.3249 H   0  0  0  0  0  0  0  0  0  0  0  0
   15.1421   -2.9051    0.7301 N   0  0  0  0  0  4  0  0  0  0  0  0
   16.1030   -2.9383    1.0723 H   0  0  0  0  0  0  0  0  0  0  0  0
   14.2128   -5.6720   -1.4344 C   0  0  0  0  0  0  0  0  0  0  0  0
   13.2188   -5.3138   -1.6922 H   0  0  0  0  0  0  0  0  0  0  0  0
   11.4045   -6.9797   -1.3343 C   0  0  0  0  0  0  0  0  0  0  0  0
   11.8069   -6.1355   -0.7805 H   0  0  0  0  0  0  0  0  0  0  0  0
   10.0112   -7.3452   -1.4722 C   0  0  0  0  0  0  0  0  0  0  0  0
    9.1573   -6.8545   -1.0153 H   0  0  0  0  0  0  0  0  0  0  0  0
  1  2  1  0
  2  3  1  0
  3  4  1  0
  4  5  1  0
  5  6  2  0
  5  7  1  0
  7  8  2  0
  8  9  1  0
  8 10  1  0
 10 11  1  0
 10 12  2  0
 12 13  1  0
 12 14  1  0
 14 15  1  0
 15 16  1  0
 16 17  2  0
 17 18  1  0
 17 19  1  0
 19 20  1  0
 19 21  2  0
 21 22  1  0
 21 23  1  0
 23 24  1  0
 23 25  2  0
 25 26  1  0
 15 27  1  0
 27 28  2  0
 27 29  1  0
 29 30  1  0
 30 31  1  0
 30 32  1  0
 30 33  1  0
 29 34  1  0
 34 35  1  0
 35 36  1  0
 35 37  1  0
 34 38  2  0
 38 39  1  0
 14 40  2  0
 40 41  1  0
  4 42  2  0
 42 43  1  0
 42 44  1  0
 44 45  1  0
 44  2  2  0
 40  7  1  0
 38 15  1  0
 25 16  1  0
M  CHG  1  38   1
M  END
>  <score>  (493) 
4.75616

$$$$

     RDKit          3D

 48 50  0  0  0  0  0  0  0  0999 V2000
   10.3607   -7.5142    1.2596 H   0  0  0  0  0  0  0  0  0  0  0  0
    9.9585   -8.0760    0.5764 O   0  0  0  0  0  0  0  0  0  0  0  0
   10.9553   -8.7883   -0.1861 C   0  0  0  0  0  0  0  0  0  0  0  0
   10.4346   -9.4250   -0.9039 H   0  0  0  0  0  0  0  0  0  0  0  0
   11.5390   -9.4302    0.4819 H   0  0  0  0  0  0  0  0  0  0  0  0
   11.9017   -7.8482   -0.9583 C   0  0  0  0  0  0  0  0  0  0  0  0
   12.3774   -7.1612   -0.2573 H   0  0  0  0  0  0  0  0  0  0  0  0
   11.3028   -7.2539   -1.6502 H   0  0  0  0  0  0  0  0  0  0  0  0
   12.9508   -8.5706   -1.7185 N   0  0  0  0  0  0  0  0  0  0  0  0
   13.4937   -9.1815   -1.1066 H   0  0  0  0  0  0  0  0  0  0  0  0
   13.8391   -7.7776   -2.5984 C   0  0  0  0  0  0  0  0  0  0  0  0
   14.4191   -8.4358   -3.2532 H   0  0  0  0  0  0  0  0  0  0  0  0
   13.2469   -7.1102   -3.2198 H   0  0  0  0  0  0  0  0  0  0  0  0
   14.7747   -6.9036   -1.8257 C   0  0  0  0  0  0  0  0  0  0  0  0
   16.0039   -7.3812   -1.3465 C   0  0  0  0  0  0  0  0  0  0  0  0
   16.2774   -8.4225   -1.5020 H   0  0  0  0  0  0  0  0  0  0  0  0
   16.8875   -6.5092   -0.6992 C   0  0  0  0  0  0  0  0  0  0  0  0
   17.8447   -6.8783   -0.3332 H   0  0  0  0  0  0  0  0  0  0  0  0
   16.5291   -5.1665   -0.5212 C   0  0  0  0  0  0  0  0  0  0  0  0
   17.2100   -4.4953   -0.0076 H   0  0  0  0  0  0  0  0  0  0  0  0
   15.2863   -4.6846   -0.9694 C   0  0  0  0  0  0  0  0  0  0  0  0
   14.8618   -3.2493   -0.7321 C   0  0  0  0  0  0  0  0  0  0  0  0
   15.4001   -2.2599   -1.7559 C   0  0  0  0  0  0  0  0  0  0  0  0
   15.9359   -2.6707   -2.9897 C   0  0  0  0  0  0  0  0  0  0  0  0
   15.9897   -3.7294   -3.2312 H   0  0  0  0  0  0  0  0  0  0  0  0
   16.4090   -1.7215   -3.9081 C   0  0  0  0  0  0  0  0  0  0  0  0
   16.8305   -2.0373   -4.8570 H   0  0  0  0  0  0  0  0  0  0  0  0
   16.3486   -0.3558   -3.6067 C   0  0  0  0  0  0  0  0  0  0  0  0
   16.7281    0.3759   -4.3150 H   0  0  0  0  0  0  0  0  0  0  0  0
   15.7920    0.0671   -2.3965 C   0  0  0  0  0  0  0  0  0  0  0  0
   15.7332    1.1276   -2.1587 H   0  0  0  0  0  0  0  0  0  0  0  0
   15.3141   -0.8817   -1.4867 C   0  0  0  0  0  0  0  0  0  0  0  0
   14.8781   -0.5469   -0.5499 H   0  0  0  0  0  0  0  0  0  0  0  0
   13.3343   -3.0747   -0.5742 C   0  0  0  0  0  0  0  0  0  0  0  0
   12.4725   -3.1955   -1.4414 O   0  0  0  0  0  0  0  0  0  0  0  0
   13.0497   -2.6920    0.7243 N   0  0  0  0  0  0  0  0  0  0  0  0
   11.7457   -2.3185    1.2788 C   0  0  0  0  0  0  0  0  0  0  0  0
   11.5096   -2.9086    2.1712 H   0  0  0  0  0  0  0  0  0  0  0  0
   10.9400   -2.4793    0.5547 H   0  0  0  0  0  0  0  0  0  0  0  0
   11.7354   -1.2607    1.5615 H   0  0  0  0  0  0  0  0  0  0  0  0
   14.2558   -2.6039    1.3852 C   0  0  0  0  0  0  0  0  0  0  0  0
   14.4302   -2.2636    2.6909 N   0  0  0  0  0  0  0  0  0  0  0  0
   15.3702   -2.3020    3.0862 H   0  0  0  0  0  0  0  0  0  0  0  0
   13.6197   -2.1148    3.2872 H   0  0  0  0  0  0  0  0  0  0  0  0
   15.2623   -2.8880    0.6371 N   0  0  0  0  0  4  0  0  0  0  0  0
   16.2163   -2.9946    0.9879 H   0  0  0  0  0  0  0  0  0  0  0  0
   14.4256   -5.5642   -1.6265 C   0  0  0  0  0  0  0  0  0  0  0  0
   13.4756   -5.2012   -2.0072 H   0  0  0  0  0  0  0  0  0  0  0  0
  1  2  1  0
  2  3  1  0
  3  4  1  0
  3  5  1  0
  3  6  1  0
  6  7  1  0
  6  8  1  0
  6  9  1  0
  9 10  1  0
  9 11  1  0
 11 12  1  0
 11 13  1  0
 11 14  1  0
 14 15  2  0
 15 16  1  0
 15 17  1  0
 17 18  1  0
 17 19  2  0
 19 20  1  0
 19 21  1  0
 21 22  1  0
 22 23  1  0
 23 24  2  0
 24 25  1  0
 24 26  1  0
 26 27  1  0
 26 28  2  0
 28 29  1  0
 28 30  1  0
 30 31  1  0
 30 32  2  0
 32 33  1  0
 22 34  1  0
 34 35  2  0
 34 36  1  0
 36 37  1  0
 37 38  1  0
 37 39  1  0
 37 40  1  0
 36 41  1  0
 41 42  1  0
 42 43  1  0
 42 44  1  0
 41 45  2  0
 45 46  1  0
 21 47  2  0
 47 48  1  0
 47 14  1  0
 45 22  1  0
 32 23  1  0
M  CHG  1  45   1
M  END
>  <score>  (494) 
4.75142

$$$$

     RDKit          3D

 51 53  0  0  0  0  0  0  0  0999 V2000
   11.9441   -9.7723   -0.3211 H   0  0  0  0  0  0  0  0  0  0  0  0
   12.0733  -10.5013   -0.9829 O   0  0  0  0  0  0  0  0  0  0  0  0
   13.4931   -9.9673   -1.1955 P   0  0  0  0  0  0  0  0  0  0  0  0
   14.5144  -11.0075   -1.3457 O   0  0  0  0  0  0  0  0  0  0  0  0
   12.7883   -9.6463    0.0905 O   0  0  0  0  0  0  0  0  0  0  0  0
   12.2961  -10.4943   -0.0578 H   0  0  0  0  0  0  0  0  0  0  0  0
   14.0678   -8.6697   -2.2419 C   0  0  0  0  0  0  0  0  0  0  0  0
   15.1017   -8.8905   -2.4498 H   0  0  0  0  0  0  0  0  0  0  0  0
   13.9040   -7.1284   -2.1039 N   0  0  0  0  0  0  0  0  0  0  0  0
   13.2654   -6.5662   -2.6946 H   0  0  0  0  0  0  0  0  0  0  0  0
   14.9083   -6.3563   -1.5390 C   0  0  0  0  0  0  0  0  0  0  0  0
   16.1595   -6.8599   -1.1763 C   0  0  0  0  0  0  0  0  0  0  0  0
   16.3680   -7.9106   -1.3356 H   0  0  0  0  0  0  0  0  0  0  0  0
   17.1308   -6.0013   -0.6478 C   0  0  0  0  0  0  0  0  0  0  0  0
   18.1173   -6.3767   -0.3856 H   0  0  0  0  0  0  0  0  0  0  0  0
   16.8203   -4.6506   -0.4484 C   0  0  0  0  0  0  0  0  0  0  0  0
   17.5801   -3.9880   -0.0518 H   0  0  0  0  0  0  0  0  0  0  0  0
   15.5402   -4.1540   -0.7529 C   0  0  0  0  0  0  0  0  0  0  0  0
   15.1247   -2.7202   -0.4794 C   0  0  0  0  0  0  0  0  0  0  0  0
   15.6454   -1.7911   -1.5636 C   0  0  0  0  0  0  0  0  0  0  0  0
   16.0997   -2.2991   -2.7981 C   0  0  0  0  0  0  0  0  0  0  0  0
   16.1200   -3.3734   -2.9663 H   0  0  0  0  0  0  0  0  0  0  0  0
   16.5185   -1.4375   -3.8161 C   0  0  0  0  0  0  0  0  0  0  0  0
   16.8765   -1.8405   -4.7597 H   0  0  0  0  0  0  0  0  0  0  0  0
   16.4738   -0.0546   -3.6143 C   0  0  0  0  0  0  0  0  0  0  0  0
   16.8106    0.6143   -4.3991 H   0  0  0  0  0  0  0  0  0  0  0  0
   15.9997    0.4651   -2.4044 C   0  0  0  0  0  0  0  0  0  0  0  0
   15.9498    1.5396   -2.2498 H   0  0  0  0  0  0  0  0  0  0  0  0
   15.5861   -0.4016   -1.3877 C   0  0  0  0  0  0  0  0  0  0  0  0
   15.2038    0.0006   -0.4541 H   0  0  0  0  0  0  0  0  0  0  0  0
   13.5987   -2.5678   -0.3306 C   0  0  0  0  0  0  0  0  0  0  0  0
   12.7481   -2.7647   -1.1970 O   0  0  0  0  0  0  0  0  0  0  0  0
   13.2664   -2.2531    0.9639 N   0  0  0  0  0  0  0  0  0  0  0  0
   11.9210   -2.2276    1.5357 C   0  0  0  0  0  0  0  0  0  0  0  0
   11.9143   -2.6645    2.5402 H   0  0  0  0  0  0  0  0  0  0  0  0
   11.2285   -2.8090    0.9182 H   0  0  0  0  0  0  0  0  0  0  0  0
   11.5509   -1.1989    1.5934 H   0  0  0  0  0  0  0  0  0  0  0  0
   14.4489   -2.2162    1.6573 C   0  0  0  0  0  0  0  0  0  0  0  0
   14.5232   -2.1191    3.0076 N   0  0  0  0  0  0  0  0  0  0  0  0
   15.4390   -1.9445    3.4172 H   0  0  0  0  0  0  0  0  0  0  0  0
   13.6910   -1.8249    3.5127 H   0  0  0  0  0  0  0  0  0  0  0  0
   15.4899   -2.3543    0.9039 N   0  0  0  0  0  4  0  0  0  0  0  0
   16.3921   -2.6120    1.3021 H   0  0  0  0  0  0  0  0  0  0  0  0
   14.6224   -5.0170   -1.3537 C   0  0  0  0  0  0  0  0  0  0  0  0
   13.6512   -4.6564   -1.6668 H   0  0  0  0  0  0  0  0  0  0  0  0
   13.1550   -9.7630   -3.2596 P   0  0  0  0  0  0  0  0  0  0  0  0
   13.5576   -9.7920   -4.6452 O   0  0  0  0  0  0  0  0  0  0  0  0
   13.5144  -11.1688   -3.4874 O   0  0  0  0  0  0  0  0  0  0  0  0
   13.6283  -10.7609   -4.4025 H   0  0  0  0  0  0  0  0  0  0  0  0
   11.6346   -9.6395   -3.0768 O   0  0  0  0  0  0  0  0  0  0  0  0
   11.4423  -10.1260   -3.9000 H   0  0  0  0  0  0  0  0  0  0  0  0
  1  2  1  0
  2  3  1  0
  3  4  2  0
  3  5  1  0
  5  6  1  0
  3  7  1  0
  7  8  1  0
  7  9  1  0
  9 10  1  0
  9 11  1  0
 11 12  2  0
 12 13  1  0
 12 14  1  0
 14 15  1  0
 14 16  2  0
 16 17  1  0
 16 18  1  0
 18 19  1  0
 19 20  1  0
 20 21  2  0
 21 22  1  0
 21 23  1  0
 23 24  1  0
 23 25  2  0
 25 26  1  0
 25 27  1  0
 27 28  1  0
 27 29  2  0
 29 30  1  0
 19 31  1  0
 31 32  2  0
 31 33  1  0
 33 34  1  0
 34 35  1  0
 34 36  1  0
 34 37  1  0
 33 38  1  0
 38 39  1  0
 39 40  1  0
 39 41  1  0
 38 42  2  0
 42 43  1  0
 18 44  2  0
 44 45  1  0
  7 46  1  0
 46 47  2  0
 46 48  1  0
 48 49  1  0
 46 50  1  0
 50 51  1  0
 44 11  1  0
 42 19  1  0
 29 20  1  0
M  CHG  1  42   1
M  END
>  <score>  (495) 
4.74119

$$$$

     RDKit          3D

 49 52  0  0  0  0  0  0  0  0999 V2000
   13.5993   -9.6799   -0.2154 H   0  0  0  0  0  0  0  0  0  0  0  0
   12.6688   -9.8916   -0.4126 O   0  0  0  0  0  0  0  0  0  0  0  0
   12.2043   -9.1444   -1.5479 C   0  0  1  0  0  0  0  0  0  0  0  0
   11.1355   -9.3230   -1.6762 H   0  0  0  0  0  0  0  0  0  0  0  0
   12.4631   -7.6398   -1.4307 C   0  0  0  0  0  0  0  0  0  0  0  0
   11.5890   -7.0845   -1.7734 H   0  0  0  0  0  0  0  0  0  0  0  0
   12.6477   -7.3797   -0.3863 H   0  0  0  0  0  0  0  0  0  0  0  0
   13.6104   -7.3295   -2.3003 N   0  0  0  0  0  0  0  0  0  0  0  0
   14.6167   -6.5179   -1.7617 C   0  0  0  0  0  0  0  0  0  0  0  0
   15.8720   -7.0511   -1.4583 C   0  0  0  0  0  0  0  0  0  0  0  0
   16.0794   -8.0927   -1.6648 H   0  0  0  0  0  0  0  0  0  0  0  0
   16.8540   -6.2666   -0.8576 C   0  0  0  0  0  0  0  0  0  0  0  0
   17.8267   -6.6978   -0.6330 H   0  0  0  0  0  0  0  0  0  0  0  0
   16.5703   -4.9349   -0.5382 C   0  0  0  0  0  0  0  0  0  0  0  0
   17.3305   -4.3476   -0.0386 H   0  0  0  0  0  0  0  0  0  0  0  0
   15.3236   -4.3578   -0.8340 C   0  0  0  0  0  0  0  0  0  0  0  0
   15.0273   -2.8872   -0.5064 C   0  0  0  0  0  0  0  0  0  0  0  0
   15.5850   -1.9287   -1.5620 C   0  0  0  0  0  0  0  0  0  0  0  0
   16.0600   -2.4325   -2.7867 C   0  0  0  0  0  0  0  0  0  0  0  0
   16.1053   -3.5069   -2.9385 H   0  0  0  0  0  0  0  0  0  0  0  0
   16.4438   -1.5780   -3.8256 C   0  0  0  0  0  0  0  0  0  0  0  0
   16.7911   -1.9875   -4.7695 H   0  0  0  0  0  0  0  0  0  0  0  0
   16.3610   -0.1946   -3.6588 C   0  0  0  0  0  0  0  0  0  0  0  0
   16.6445    0.4692   -4.4711 H   0  0  0  0  0  0  0  0  0  0  0  0
   15.9139    0.3306   -2.4418 C   0  0  0  0  0  0  0  0  0  0  0  0
   15.8494    1.4071   -2.3125 H   0  0  0  0  0  0  0  0  0  0  0  0
   15.5299   -0.5292   -1.4003 C   0  0  0  0  0  0  0  0  0  0  0  0
   15.1627   -0.1040   -0.4700 H   0  0  0  0  0  0  0  0  0  0  0  0
   13.5134   -2.6693   -0.3619 C   0  0  0  0  0  0  0  0  0  0  0  0
   12.6608   -2.7846   -1.2401 O   0  0  0  0  0  0  0  0  0  0  0  0
   13.2051   -2.3744    0.9471 N   0  0  0  0  0  0  0  0  0  0  0  0
   11.8557   -2.2415    1.4919 C   0  0  0  0  0  0  0  0  0  0  0  0
   11.1137   -2.5144    0.7326 H   0  0  0  0  0  0  0  0  0  0  0  0
   11.6636   -1.2091    1.7983 H   0  0  0  0  0  0  0  0  0  0  0  0
   11.7133   -2.8989    2.3569 H   0  0  0  0  0  0  0  0  0  0  0  0
   14.3901   -2.3827    1.6478 C   0  0  0  0  0  0  0  0  0  0  0  0
   14.4782   -2.2528    2.9986 N   0  0  0  0  0  0  0  0  0  0  0  0
   15.3892   -2.0218    3.3895 H   0  0  0  0  0  0  0  0  0  0  0  0
   13.6420   -1.9371    3.4881 H   0  0  0  0  0  0  0  0  0  0  0  0
   15.4225   -2.5592    0.8831 N   0  0  0  0  0  4  0  0  0  0  0  0
   16.3654   -2.7126    1.2440 H   0  0  0  0  0  0  0  0  0  0  0  0
   14.3588   -5.1758   -1.4627 C   0  0  0  0  0  0  0  0  0  0  0  0
   13.3840   -4.7886   -1.7298 H   0  0  0  0  0  0  0  0  0  0  0  0
   14.0015   -8.5148   -3.0661 C   0  0  0  0  0  0  0  0  0  0  0  0
   14.0730   -8.2863   -4.1333 H   0  0  0  0  0  0  0  0  0  0  0  0
   14.9677   -8.8806   -2.7236 H   0  0  0  0  0  0  0  0  0  0  0  0
   12.9480   -9.5727   -2.7954 C   0  0  0  0  0  0  0  0  0  0  0  0
   13.4025  -10.5546   -2.6649 H   0  0  0  0  0  0  0  0  0  0  0  0
   12.2572   -9.6287   -3.6343 H   0  0  0  0  0  0  0  0  0  0  0  0
  1  2  1  0
  2  3  1  0
  3  4  1  1
  3  5  1  0
  5  6  1  0
  5  7  1  0
  5  8  1  0
  8  9  1  0
  9 10  2  0
 10 11  1  0
 10 12  1  0
 12 13  1  0
 12 14  2  0
 14 15  1  0
 14 16  1  0
 16 17  1  0
 17 18  1  0
 18 19  2  0
 19 20  1  0
 19 21  1  0
 21 22  1  0
 21 23  2  0
 23 24  1  0
 23 25  1  0
 25 26  1  0
 25 27  2  0
 27 28  1  0
 17 29  1  0
 29 30  2  0
 29 31  1  0
 31 32  1  0
 32 33  1  0
 32 34  1  0
 32 35  1  0
 31 36  1  0
 36 37  1  0
 37 38  1  0
 37 39  1  0
 36 40  2  0
 40 41  1  0
 16 42  2  0
 42 43  1  0
  8 44  1  0
 44 45  1  0
 44 46  1  0
 44 47  1  0
 47 48  1  0
 47 49  1  0
 47  3  1  0
 42  9  1  0
 40 17  1  0
 27 18  1  0
M  CHG  1  40   1
M  END
>  <score>  (496) 
4.7379

$$$$

     RDKit          3D

 45 47  0  0  0  0  0  0  0  0999 V2000
   12.3768  -10.2057   -4.4522 H   0  0  0  0  0  0  0  0  0  0  0  0
   12.9692   -9.7427   -3.8139 O   0  0  0  0  0  0  0  0  0  0  0  0
   12.2878   -9.4854   -2.5786 C   0  0  0  0  0  0  0  0  0  0  0  0
   11.2245   -9.3245   -2.7825 H   0  0  0  0  0  0  0  0  0  0  0  0
   12.3667  -10.3817   -1.9589 H   0  0  0  0  0  0  0  0  0  0  0  0
   12.8022   -8.2425   -1.8086 C   0  0  0  0  0  0  0  0  0  0  0  0
   12.3335   -8.2593   -0.8183 H   0  0  0  0  0  0  0  0  0  0  0  0
   12.4578   -7.3511   -2.3301 H   0  0  0  0  0  0  0  0  0  0  0  0
   14.2663   -8.1482   -1.6615 N   0  0  0  0  0  0  0  0  0  0  0  0
   14.8134   -8.9881   -1.8445 H   0  0  0  0  0  0  0  0  0  0  0  0
   14.9968   -7.0163   -1.2953 C   0  0  0  0  0  0  0  0  0  0  0  0
   16.3334   -7.2777   -1.0232 C   0  0  0  0  0  0  0  0  0  0  0  0
   16.6726   -8.3009   -1.0965 H   0  0  0  0  0  0  0  0  0  0  0  0
   17.2113   -6.2618   -0.6552 C   0  0  0  0  0  0  0  0  0  0  0  0
   18.2397   -6.4935   -0.3843 H   0  0  0  0  0  0  0  0  0  0  0  0
   16.7393   -4.9539   -0.5783 C   0  0  0  0  0  0  0  0  0  0  0  0
   17.4226   -4.1542   -0.3118 H   0  0  0  0  0  0  0  0  0  0  0  0
   15.3918   -4.6457   -0.8178 C   0  0  0  0  0  0  0  0  0  0  0  0
   14.9363   -3.2044   -0.6278 C   0  0  0  0  0  0  0  0  0  0  0  0
   15.4488   -2.2297   -1.6900 C   0  0  0  0  0  0  0  0  0  0  0  0
   15.9641   -2.6578   -2.9294 C   0  0  0  0  0  0  0  0  0  0  0  0
   16.0182   -3.7193   -3.1554 H   0  0  0  0  0  0  0  0  0  0  0  0
   16.4140   -1.7258   -3.8794 C   0  0  0  0  0  0  0  0  0  0  0  0
   16.8162   -2.0633   -4.8301 H   0  0  0  0  0  0  0  0  0  0  0  0
   16.3451   -0.3548   -3.6104 C   0  0  0  0  0  0  0  0  0  0  0  0
   16.7023    0.3640   -4.3440 H   0  0  0  0  0  0  0  0  0  0  0  0
   15.8172    0.0825   -2.3927 C   0  0  0  0  0  0  0  0  0  0  0  0
   15.7539    1.1448   -2.1772 H   0  0  0  0  0  0  0  0  0  0  0  0
   15.3681   -0.8468   -1.4488 C   0  0  0  0  0  0  0  0  0  0  0  0
   14.9558   -0.4922   -0.5085 H   0  0  0  0  0  0  0  0  0  0  0  0
   13.4129   -3.0819   -0.4744 C   0  0  0  0  0  0  0  0  0  0  0  0
   12.5616   -3.3399   -1.3230 O   0  0  0  0  0  0  0  0  0  0  0  0
   13.1110   -2.6245    0.7935 N   0  0  0  0  0  0  0  0  0  0  0  0
   11.7847   -2.3089    1.3224 C   0  0  0  0  0  0  0  0  0  0  0  0
   11.7213   -1.2495    1.5954 H   0  0  0  0  0  0  0  0  0  0  0  0
   11.0135   -2.5116    0.5717 H   0  0  0  0  0  0  0  0  0  0  0  0
   11.5616   -2.9140    2.2082 H   0  0  0  0  0  0  0  0  0  0  0  0
   14.3065   -2.4680    1.4636 C   0  0  0  0  0  0  0  0  0  0  0  0
   14.4716   -2.0911    2.7637 N   0  0  0  0  0  0  0  0  0  0  0  0
   13.6592   -2.1172    3.3750 H   0  0  0  0  0  0  0  0  0  0  0  0
   15.3941   -2.2190    3.1764 H   0  0  0  0  0  0  0  0  0  0  0  0
   15.3264   -2.7582    0.7270 N   0  0  0  0  0  4  0  0  0  0  0  0
   16.2866   -2.8024    1.0739 H   0  0  0  0  0  0  0  0  0  0  0  0
   14.5118   -5.6969   -1.1894 C   0  0  0  0  0  0  0  0  0  0  0  0
   13.4668   -5.4933   -1.3972 H   0  0  0  0  0  0  0  0  0  0  0  0
  1  2  1  0
  2  3  1  0
  3  4  1  0
  3  5  1  0
  3  6  1  0
  6  7  1  0
  6  8  1  0
  6  9  1  0
  9 10  1  0
  9 11  1  0
 11 12  2  0
 12 13  1  0
 12 14  1  0
 14 15  1  0
 14 16  2  0
 16 17  1  0
 16 18  1  0
 18 19  1  0
 19 20  1  0
 20 21  2  0
 21 22  1  0
 21 23  1  0
 23 24  1  0
 23 25  2  0
 25 26  1  0
 25 27  1  0
 27 28  1  0
 27 29  2  0
 29 30  1  0
 19 31  1  0
 31 32  2  0
 31 33  1  0
 33 34  1  0
 34 35  1  0
 34 36  1  0
 34 37  1  0
 33 38  1  0
 38 39  1  0
 39 40  1  0
 39 41  1  0
 38 42  2  0
 42 43  1  0
 18 44  2  0
 44 45  1  0
 44 11  1  0
 42 19  1  0
 29 20  1  0
M  CHG  1  42   1
M  END
>  <score>  (497) 
4.69746

$$$$

     RDKit          3D

 45 47  0  0  0  0  0  0  0  0999 V2000
   11.1662   -8.9665   -0.7390 H   0  0  0  0  0  0  0  0  0  0  0  0
   12.0834   -9.1776   -0.9667 O   0  0  0  0  0  0  0  0  0  0  0  0
   12.5324   -8.0957   -1.6478 C   0  0  0  0  0  0  0  0  0  0  0  0
   11.8166   -7.1436   -1.9126 O   0  0  0  0  0  0  0  0  0  0  0  0
   14.0022   -8.1143   -2.1073 C   0  0  2  0  0  0  0  0  0  0  0  0
   14.3586   -9.1184   -1.8798 H   0  0  0  0  0  0  0  0  0  0  0  0
   14.8698   -7.0727   -1.4276 C   0  0  0  0  0  0  0  0  0  0  0  0
   16.1621   -7.4122   -1.0040 C   0  0  0  0  0  0  0  0  0  0  0  0
   16.5067   -8.4408   -1.0628 H   0  0  0  0  0  0  0  0  0  0  0  0
   17.0368   -6.4221   -0.5466 C   0  0  0  0  0  0  0  0  0  0  0  0
   18.0533   -6.6645   -0.2507 H   0  0  0  0  0  0  0  0  0  0  0  0
   16.6124   -5.0946   -0.4804 C   0  0  0  0  0  0  0  0  0  0  0  0
   17.2964   -4.3371   -0.1051 H   0  0  0  0  0  0  0  0  0  0  0  0
   15.3093   -4.7294   -0.8520 C   0  0  0  0  0  0  0  0  0  0  0  0
   14.8587   -3.2818   -0.6905 C   0  0  0  0  0  0  0  0  0  0  0  0
   15.3976   -2.2999   -1.7307 C   0  0  0  0  0  0  0  0  0  0  0  0
   15.9351   -2.7072   -2.9675 C   0  0  0  0  0  0  0  0  0  0  0  0
   15.9892   -3.7615   -3.2221 H   0  0  0  0  0  0  0  0  0  0  0  0
   16.4068   -1.7585   -3.8877 C   0  0  0  0  0  0  0  0  0  0  0  0
   16.8254   -2.0738   -4.8369 H   0  0  0  0  0  0  0  0  0  0  0  0
   16.3441   -0.3941   -3.5921 C   0  0  0  0  0  0  0  0  0  0  0  0
   16.7186    0.3403   -4.2998 H   0  0  0  0  0  0  0  0  0  0  0  0
   15.7923    0.0224   -2.3801 C   0  0  0  0  0  0  0  0  0  0  0  0
   15.7313    1.0788   -2.1420 H   0  0  0  0  0  0  0  0  0  0  0  0
   15.3171   -0.9203   -1.4658 C   0  0  0  0  0  0  0  0  0  0  0  0
   14.8828   -0.5802   -0.5292 H   0  0  0  0  0  0  0  0  0  0  0  0
   13.3339   -3.1142   -0.5306 C   0  0  0  0  0  0  0  0  0  0  0  0
   12.4742   -3.2719   -1.3998 O   0  0  0  0  0  0  0  0  0  0  0  0
   13.0607   -2.6748    0.7489 N   0  0  0  0  0  0  0  0  0  0  0  0
   11.7564   -2.3094    1.2951 C   0  0  0  0  0  0  0  0  0  0  0  0
   11.5350   -2.9059    2.1866 H   0  0  0  0  0  0  0  0  0  0  0  0
   11.7448   -1.2490    1.5689 H   0  0  0  0  0  0  0  0  0  0  0  0
   10.9595   -2.4810    0.5626 H   0  0  0  0  0  0  0  0  0  0  0  0
   14.2657   -2.5645    1.4079 C   0  0  0  0  0  0  0  0  0  0  0  0
   14.4504   -2.2039    2.7085 N   0  0  0  0  0  0  0  0  0  0  0  0
   13.6412   -2.1105    3.3180 H   0  0  0  0  0  0  0  0  0  0  0  0
   15.3869   -2.2837    3.1019 H   0  0  0  0  0  0  0  0  0  0  0  0
   15.2701   -2.8655    0.6631 N   0  0  0  0  0  4  0  0  0  0  0  0
   16.2250   -2.9749    1.0125 H   0  0  0  0  0  0  0  0  0  0  0  0
   14.4452   -5.7345   -1.3325 C   0  0  0  0  0  0  0  0  0  0  0  0
   13.4401   -5.4850   -1.6581 H   0  0  0  0  0  0  0  0  0  0  0  0
   14.2103   -7.8736   -3.6038 C   0  0  0  0  0  0  0  0  0  0  0  0
   15.2733   -7.8616   -3.8615 H   0  0  0  0  0  0  0  0  0  0  0  0
   13.8327   -6.8901   -3.8612 H   0  0  0  0  0  0  0  0  0  0  0  0
   13.7082   -8.6371   -4.2082 H   0  0  0  0  0  0  0  0  0  0  0  0
  1  2  1  0
  2  3  1  0
  3  4  2  0
  3  5  1  0
  5  6  1  1
  5  7  1  0
  7  8  2  0
  8  9  1  0
  8 10  1  0
 10 11  1  0
 10 12  2  0
 12 13  1  0
 12 14  1  0
 14 15  1  0
 15 16  1  0
 16 17  2  0
 17 18  1  0
 17 19  1  0
 19 20  1  0
 19 21  2  0
 21 22  1  0
 21 23  1  0
 23 24  1  0
 23 25  2  0
 25 26  1  0
 15 27  1  0
 27 28  2  0
 27 29  1  0
 29 30  1  0
 30 31  1  0
 30 32  1  0
 30 33  1  0
 29 34  1  0
 34 35  1  0
 35 36  1  0
 35 37  1  0
 34 38  2  0
 38 39  1  0
 14 40  2  0
 40 41  1  0
  5 42  1  0
 42 43  1  0
 42 44  1  0
 42 45  1  0
 40  7  1  0
 38 15  1  0
 25 16  1  0
M  CHG  1  38   1
M  END
>  <score>  (498) 
4.69181

$$$$

     RDKit          3D

 43 45  0  0  0  0  0  0  0  0999 V2000
   16.2668   -6.6234   -3.7697 H   0  0  0  0  0  0  0  0  0  0  0  0
   15.6124   -7.2434   -4.3711 C   0  0  0  0  0  0  0  0  0  0  0  0
   15.9043   -7.3864   -5.4076 H   0  0  0  0  0  0  0  0  0  0  0  0
   14.4678   -7.8194   -3.8451 C   0  0  0  0  0  0  0  0  0  0  0  0
   13.8710   -8.4711   -4.4738 H   0  0  0  0  0  0  0  0  0  0  0  0
   13.9935   -7.6533   -2.4357 C   0  0  0  0  0  0  0  0  0  0  0  0
   14.0047   -8.6314   -1.9483 H   0  0  0  0  0  0  0  0  0  0  0  0
   12.9604   -7.2802   -2.4297 H   0  0  0  0  0  0  0  0  0  0  0  0
   14.9051   -6.7246   -1.6995 C   0  0  0  0  0  0  0  0  0  0  0  0
   16.1477   -7.1866   -1.2603 C   0  0  0  0  0  0  0  0  0  0  0  0
   16.4266   -8.2171   -1.4517 H   0  0  0  0  0  0  0  0  0  0  0  0
   17.0167   -6.3254   -0.5940 C   0  0  0  0  0  0  0  0  0  0  0  0
   17.9922   -6.6712   -0.2696 H   0  0  0  0  0  0  0  0  0  0  0  0
   16.6287   -5.0047   -0.3578 C   0  0  0  0  0  0  0  0  0  0  0  0
   17.2926   -4.3549    0.1917 H   0  0  0  0  0  0  0  0  0  0  0  0
   15.4024   -4.5124   -0.8387 C   0  0  0  0  0  0  0  0  0  0  0  0
   14.9411   -3.0788   -0.6304 C   0  0  0  0  0  0  0  0  0  0  0  0
   15.4433   -2.1184   -1.7085 C   0  0  0  0  0  0  0  0  0  0  0  0
   15.9483   -2.5717   -2.9454 C   0  0  0  0  0  0  0  0  0  0  0  0
   15.9881   -3.6358   -3.1633 H   0  0  0  0  0  0  0  0  0  0  0  0
   16.4192   -1.6604   -3.8993 C   0  0  0  0  0  0  0  0  0  0  0  0
   16.8326   -2.0052   -4.8388 H   0  0  0  0  0  0  0  0  0  0  0  0
   16.3800   -0.2902   -3.6403 C   0  0  0  0  0  0  0  0  0  0  0  0
   16.7632    0.4161   -4.3701 H   0  0  0  0  0  0  0  0  0  0  0  0
   15.8458    0.1726   -2.4374 C   0  0  0  0  0  0  0  0  0  0  0  0
   15.8133    1.2370   -2.2319 H   0  0  0  0  0  0  0  0  0  0  0  0
   15.3700   -0.7324   -1.4837 C   0  0  0  0  0  0  0  0  0  0  0  0
   14.9521   -0.3601   -0.5508 H   0  0  0  0  0  0  0  0  0  0  0  0
   13.4011   -3.0028   -0.5052 C   0  0  0  0  0  0  0  0  0  0  0  0
   12.5736   -3.2711   -1.3799 O   0  0  0  0  0  0  0  0  0  0  0  0
   13.0589   -2.6522    0.7840 N   0  0  0  0  0  0  0  0  0  0  0  0
   11.7143   -2.2723    1.2352 C   0  0  0  0  0  0  0  0  0  0  0  0
   10.9694   -2.4751    0.4514 H   0  0  0  0  0  0  0  0  0  0  0  0
   11.4233   -2.8449    2.1222 H   0  0  0  0  0  0  0  0  0  0  0  0
   11.6773   -1.2006    1.4758 H   0  0  0  0  0  0  0  0  0  0  0  0
   14.2454   -2.5151    1.4881 C   0  0  0  0  0  0  0  0  0  0  0  0
   14.3606   -2.2935    2.8280 N   0  0  0  0  0  0  0  0  0  0  0  0
   15.2930   -2.1410    3.2159 H   0  0  0  0  0  0  0  0  0  0  0  0
   13.5414   -1.9654    3.3387 H   0  0  0  0  0  0  0  0  0  0  0  0
   15.2960   -2.6559    0.7396 N   0  0  0  0  0  4  0  0  0  0  0  0
   16.2556   -2.6451    1.0954 H   0  0  0  0  0  0  0  0  0  0  0  0
   14.5563   -5.3865   -1.5248 C   0  0  0  0  0  0  0  0  0  0  0  0
   13.6175   -5.0134   -1.9246 H   0  0  0  0  0  0  0  0  0  0  0  0
  1  2  1  0
  2  3  1  0
  2  4  2  0
  4  5  1  0
  4  6  1  0
  6  7  1  0
  6  8  1  0
  6  9  1  0
  9 10  2  0
 10 11  1  0
 10 12  1  0
 12 13  1  0
 12 14  2  0
 14 15  1  0
 14 16  1  0
 16 17  1  0
 17 18  1  0
 18 19  2  0
 19 20  1  0
 19 21  1  0
 21 22  1  0
 21 23  2  0
 23 24  1  0
 23 25  1  0
 25 26  1  0
 25 27  2  0
 27 28  1  0
 17 29  1  0
 29 30  2  0
 29 31  1  0
 31 32  1  0
 32 33  1  0
 32 34  1  0
 32 35  1  0
 31 36  1  0
 36 37  1  0
 37 38  1  0
 37 39  1  0
 36 40  2  0
 40 41  1  0
 16 42  2  0
 42 43  1  0
 42  9  1  0
 40 17  1  0
 27 18  1  0
M  CHG  1  40   1
M  END
>  <score>  (499) 
4.67802

$$$$

     RDKit          3D

 57 60  0  0  0  0  0  0  0  0999 V2000
    8.2233  -11.3115   -4.0272 H   0  0  0  0  0  0  0  0  0  0  0  0
    9.1952  -11.3725   -3.9758 O   0  0  0  0  0  0  0  0  0  0  0  0
    9.6739  -10.7274   -2.7792 C   0  0  0  0  0  0  0  0  0  0  0  0
    9.1963  -11.2244   -1.9291 H   0  0  0  0  0  0  0  0  0  0  0  0
    9.3604   -9.6783   -2.7711 H   0  0  0  0  0  0  0  0  0  0  0  0
   11.2104  -10.8199   -2.5986 C   0  0  0  0  0  0  0  0  0  0  0  0
   11.6137  -11.4135   -3.4232 H   0  0  0  0  0  0  0  0  0  0  0  0
   11.4130  -11.3557   -1.6675 H   0  0  0  0  0  0  0  0  0  0  0  0
   11.9378   -9.5222   -2.5374 N   0  0  0  0  0  0  0  0  0  0  0  0
   11.6325   -8.5912   -1.4245 C   0  0  0  0  0  0  0  0  0  0  0  0
   10.5653   -8.3547   -1.4134 H   0  0  0  0  0  0  0  0  0  0  0  0
   11.8782   -9.0747   -0.4766 H   0  0  0  0  0  0  0  0  0  0  0  0
   12.4418   -7.2836   -1.5219 C   0  0  0  0  0  0  0  0  0  0  0  0
   12.1549   -6.7550   -2.4311 H   0  0  0  0  0  0  0  0  0  0  0  0
   12.1966   -6.6420   -0.6721 H   0  0  0  0  0  0  0  0  0  0  0  0
   13.8953   -7.5562   -1.5411 N   0  0  0  0  0  0  0  0  0  0  0  0
   14.8233   -6.5896   -1.1417 C   0  0  0  0  0  0  0  0  0  0  0  0
   16.1588   -6.9471   -0.9666 C   0  0  0  0  0  0  0  0  0  0  0  0
   16.4308   -7.9839   -1.1076 H   0  0  0  0  0  0  0  0  0  0  0  0
   17.1203   -5.9894   -0.6462 C   0  0  0  0  0  0  0  0  0  0  0  0
   18.1591   -6.2770   -0.5317 H   0  0  0  0  0  0  0  0  0  0  0  0
   16.7336   -4.6608   -0.4818 C   0  0  0  0  0  0  0  0  0  0  0  0
   17.4837   -3.9111   -0.2486 H   0  0  0  0  0  0  0  0  0  0  0  0
   15.3874   -4.2843   -0.5937 C   0  0  0  0  0  0  0  0  0  0  0  0
   14.9861   -2.8335   -0.3928 C   0  0  0  0  0  0  0  0  0  0  0  0
   15.4995   -1.9295   -1.5092 C   0  0  0  0  0  0  0  0  0  0  0  0
   15.9816   -2.4686   -2.7155 C   0  0  0  0  0  0  0  0  0  0  0  0
   15.9900   -3.5464   -2.8483 H   0  0  0  0  0  0  0  0  0  0  0  0
   16.4880   -1.6395   -3.7238 C   0  0  0  0  0  0  0  0  0  0  0  0
   16.8990   -2.0739   -4.6304 H   0  0  0  0  0  0  0  0  0  0  0  0
   16.5047   -0.2527   -3.5466 C   0  0  0  0  0  0  0  0  0  0  0  0
   16.9191    0.3884   -4.3195 H   0  0  0  0  0  0  0  0  0  0  0  0
   16.0279    0.3013   -2.3540 C   0  0  0  0  0  0  0  0  0  0  0  0
   16.0809    1.3751   -2.1917 H   0  0  0  0  0  0  0  0  0  0  0  0
   15.5201   -0.5325   -1.3491 C   0  0  0  0  0  0  0  0  0  0  0  0
   15.1702   -0.0922   -0.4193 H   0  0  0  0  0  0  0  0  0  0  0  0
   13.4724   -2.6660   -0.1831 C   0  0  0  0  0  0  0  0  0  0  0  0
   12.5764   -2.8433   -1.0085 O   0  0  0  0  0  0  0  0  0  0  0  0
   13.2366   -2.2718    1.1122 N   0  0  0  0  0  0  0  0  0  0  0  0
   11.9477   -1.9957    1.7316 C   0  0  0  0  0  0  0  0  0  0  0  0
   11.1258   -2.2472    1.0540 H   0  0  0  0  0  0  0  0  0  0  0  0
   11.8874   -0.9313    1.9570 H   0  0  0  0  0  0  0  0  0  0  0  0
   11.8232   -2.5693    2.6575 H   0  0  0  0  0  0  0  0  0  0  0  0
   14.4526   -2.1523    1.7270 C   0  0  0  0  0  0  0  0  0  0  0  0
   14.6037   -1.8075    3.0232 N   0  0  0  0  0  0  0  0  0  0  0  0
   13.7611   -1.8209    3.5895 H   0  0  0  0  0  0  0  0  0  0  0  0
   15.4714   -2.0875    3.4676 H   0  0  0  0  0  0  0  0  0  0  0  0
   15.4426   -2.3857    0.9379 N   0  0  0  0  0  4  0  0  0  0  0  0
   16.4043   -2.4701    1.2665 H   0  0  0  0  0  0  0  0  0  0  0  0
   14.4386   -5.2637   -0.9333 C   0  0  0  0  0  0  0  0  0  0  0  0
   13.3924   -5.0053   -1.0533 H   0  0  0  0  0  0  0  0  0  0  0  0
   14.3465   -8.8752   -2.0366 C   0  0  0  0  0  0  0  0  0  0  0  0
   15.3108   -8.7501   -2.5332 H   0  0  0  0  0  0  0  0  0  0  0  0
   14.4937   -9.5551   -1.1921 H   0  0  0  0  0  0  0  0  0  0  0  0
   13.3424   -9.4920   -3.0380 C   0  0  0  0  0  0  0  0  0  0  0  0
   13.3806   -8.9036   -3.9612 H   0  0  0  0  0  0  0  0  0  0  0  0
   13.6664  -10.5048   -3.2877 H   0  0  0  0  0  0  0  0  0  0  0  0
  1  2  1  0
  2  3  1  0
  3  4  1  0
  3  5  1  0
  3  6  1  0
  6  7  1  0
  6  8  1  0
  6  9  1  0
  9 10  1  0
 10 11  1  0
 10 12  1  0
 10 13  1  0
 13 14  1  0
 13 15  1  0
 13 16  1  0
 16 17  1  0
 17 18  2  0
 18 19  1  0
 18 20  1  0
 20 21  1  0
 20 22  2  0
 22 23  1  0
 22 24  1  0
 24 25  1  0
 25 26  1  0
 26 27  2  0
 27 28  1  0
 27 29  1  0
 29 30  1  0
 29 31  2  0
 31 32  1  0
 31 33  1  0
 33 34  1  0
 33 35  2  0
 35 36  1  0
 25 37  1  0
 37 38  2  0
 37 39  1  0
 39 40  1  0
 40 41  1  0
 40 42  1  0
 40 43  1  0
 39 44  1  0
 44 45  1  0
 45 46  1  0
 45 47  1  0
 44 48  2  0
 48 49  1  0
 24 50  2  0
 50 51  1  0
 16 52  1  0
 52 53  1  0
 52 54  1  0
 52 55  1  0
 55 56  1  0
 55 57  1  0
 55  9  1  0
 50 17  1  0
 48 25  1  0
 35 26  1  0
M  CHG  1  48   1
M  END
>  <score>  (500) 
4.66571

$$$$

     RDKit          3D

 43 45  0  0  0  0  0  0  0  0999 V2000
   15.1269   -9.0435   -1.6267 H   0  0  0  0  0  0  0  0  0  0  0  0
   14.4675   -9.4767   -2.1948 O   0  0  0  0  0  0  0  0  0  0  0  0
   13.8653   -8.5302   -3.0779 C   0  0  0  0  0  0  0  0  0  0  0  0
   13.0068   -9.0045   -3.5626 H   0  0  0  0  0  0  0  0  0  0  0  0
   14.5564   -8.1877   -3.8517 H   0  0  0  0  0  0  0  0  0  0  0  0
   13.4342   -7.3207   -2.2797 C   0  0  0  0  0  0  0  0  0  0  0  0
   12.8062   -7.6458   -1.4470 H   0  0  0  0  0  0  0  0  0  0  0  0
   12.8421   -6.6607   -2.9169 H   0  0  0  0  0  0  0  0  0  0  0  0
   14.5927   -6.5021   -1.7838 C   0  0  0  0  0  0  0  0  0  0  0  0
   15.9125   -6.9720   -1.6908 C   0  0  0  0  0  0  0  0  0  0  0  0
   16.1485   -7.9949   -1.9716 H   0  0  0  0  0  0  0  0  0  0  0  0
   16.9217   -6.1186   -1.2187 C   0  0  0  0  0  0  0  0  0  0  0  0
   17.9461   -6.4731   -1.1177 H   0  0  0  0  0  0  0  0  0  0  0  0
   16.6170   -4.7923   -0.8786 C   0  0  0  0  0  0  0  0  0  0  0  0
   17.4090   -4.1373   -0.5288 H   0  0  0  0  0  0  0  0  0  0  0  0
   15.3015   -4.3126   -0.9792 C   0  0  0  0  0  0  0  0  0  0  0  0
   14.9259   -2.8754   -0.6626 C   0  0  0  0  0  0  0  0  0  0  0  0
   15.4463   -1.9109   -1.7229 C   0  0  0  0  0  0  0  0  0  0  0  0
   15.9536   -2.3707   -2.9517 C   0  0  0  0  0  0  0  0  0  0  0  0
   15.9750   -3.4363   -3.1567 H   0  0  0  0  0  0  0  0  0  0  0  0
   16.4359   -1.4768   -3.9161 C   0  0  0  0  0  0  0  0  0  0  0  0
   16.8244   -1.8535   -4.8569 H   0  0  0  0  0  0  0  0  0  0  0  0
   16.4159   -0.1014   -3.6732 C   0  0  0  0  0  0  0  0  0  0  0  0
   16.8135    0.5962   -4.4085 H   0  0  0  0  0  0  0  0  0  0  0  0
   15.8742    0.3687   -2.4727 C   0  0  0  0  0  0  0  0  0  0  0  0
   15.8213    1.4324   -2.2766 H   0  0  0  0  0  0  0  0  0  0  0  0
   15.3939   -0.5285   -1.5116 C   0  0  0  0  0  0  0  0  0  0  0  0
   14.9768   -0.1564   -0.5825 H   0  0  0  0  0  0  0  0  0  0  0  0
   13.4021   -2.7251   -0.4623 C   0  0  0  0  0  0  0  0  0  0  0  0
   12.5135   -2.9030   -1.2967 O   0  0  0  0  0  0  0  0  0  0  0  0
   13.1289   -2.4549    0.8589 N   0  0  0  0  0  0  0  0  0  0  0  0
   11.8071   -2.1550    1.4277 C   0  0  0  0  0  0  0  0  0  0  0  0
   11.7994   -2.3186    2.5115 H   0  0  0  0  0  0  0  0  0  0  0  0
   11.0284   -2.7943    0.9937 H   0  0  0  0  0  0  0  0  0  0  0  0
   11.5403   -1.1096    1.2359 H   0  0  0  0  0  0  0  0  0  0  0  0
   14.3415   -2.3282    1.4914 C   0  0  0  0  0  0  0  0  0  0  0  0
   14.4826   -2.0318    2.8137 N   0  0  0  0  0  0  0  0  0  0  0  0
   15.3917   -2.1948    3.2380 H   0  0  0  0  0  0  0  0  0  0  0  0
   13.6510   -2.0225    3.3988 H   0  0  0  0  0  0  0  0  0  0  0  0
   15.3542   -2.5238    0.7103 N   0  0  0  0  0  4  0  0  0  0  0  0
   16.3174   -2.5813    1.0427 H   0  0  0  0  0  0  0  0  0  0  0  0
   14.3119   -5.1918   -1.4216 C   0  0  0  0  0  0  0  0  0  0  0  0
   13.2830   -4.8596   -1.4812 H   0  0  0  0  0  0  0  0  0  0  0  0
  1  2  1  0
  2  3  1  0
  3  4  1  0
  3  5  1  0
  3  6  1  0
  6  7  1  0
  6  8  1  0
  6  9  1  0
  9 10  2  0
 10 11  1  0
 10 12  1  0
 12 13  1  0
 12 14  2  0
 14 15  1  0
 14 16  1  0
 16 17  1  0
 17 18  1  0
 18 19  2  0
 19 20  1  0
 19 21  1  0
 21 22  1  0
 21 23  2  0
 23 24  1  0
 23 25  1  0
 25 26  1  0
 25 27  2  0
 27 28  1  0
 17 29  1  0
 29 30  2  0
 29 31  1  0
 31 32  1  0
 32 33  1  0
 32 34  1  0
 32 35  1  0
 31 36  1  0
 36 37  1  0
 37 38  1  0
 37 39  1  0
 36 40  2  0
 40 41  1  0
 16 42  2  0
 42 43  1  0
 42  9  1  0
 40 17  1  0
 27 18  1  0
M  CHG  1  40   1
M  END
>  <score>  (501) 
4.62129

$$$$

     RDKit          3D

 41 43  0  0  0  0  0  0  0  0999 V2000
   11.9445   -8.6353   -2.5352 H   0  0  0  0  0  0  0  0  0  0  0  0
   12.3611   -7.7965   -2.1441 N   0  0  0  0  0  0  0  0  0  0  0  0
   13.6266   -7.8334   -2.2798 C   0  0  0  0  0  0  0  0  0  0  0  0
   14.6211   -6.8812   -1.7875 C   0  0  0  0  0  0  0  0  0  0  0  0
   15.8773   -7.3538   -1.3793 C   0  0  0  0  0  0  0  0  0  0  0  0
   16.1359   -8.3969   -1.5199 H   0  0  0  0  0  0  0  0  0  0  0  0
   16.8015   -6.5102   -0.7652 C   0  0  0  0  0  0  0  0  0  0  0  0
   17.7619   -6.9001   -0.4370 H   0  0  0  0  0  0  0  0  0  0  0  0
   16.4787   -5.1688   -0.5661 C   0  0  0  0  0  0  0  0  0  0  0  0
   17.1815   -4.5182   -0.0510 H   0  0  0  0  0  0  0  0  0  0  0  0
   15.2377   -4.6623   -0.9969 C   0  0  0  0  0  0  0  0  0  0  0  0
   14.8478   -3.2223   -0.7456 C   0  0  0  0  0  0  0  0  0  0  0  0
   15.4016   -2.2395   -1.7655 C   0  0  0  0  0  0  0  0  0  0  0  0
   15.9402   -2.6537   -2.9979 C   0  0  0  0  0  0  0  0  0  0  0  0
   15.9953   -3.7122   -3.2412 H   0  0  0  0  0  0  0  0  0  0  0  0
   16.4156   -1.7074   -3.9164 C   0  0  0  0  0  0  0  0  0  0  0  0
   16.8407   -2.0277   -4.8632 H   0  0  0  0  0  0  0  0  0  0  0  0
   16.3509   -0.3415   -3.6158 C   0  0  0  0  0  0  0  0  0  0  0  0
   16.7229    0.3895   -4.3273 H   0  0  0  0  0  0  0  0  0  0  0  0
   15.7958    0.0838   -2.4045 C   0  0  0  0  0  0  0  0  0  0  0  0
   15.7340    1.1434   -2.1642 H   0  0  0  0  0  0  0  0  0  0  0  0
   15.3189   -0.8634   -1.4938 C   0  0  0  0  0  0  0  0  0  0  0  0
   14.8858   -0.5339   -0.5532 H   0  0  0  0  0  0  0  0  0  0  0  0
   13.3232   -3.0292   -0.5890 C   0  0  0  0  0  0  0  0  0  0  0  0
   12.4585   -3.1525   -1.4539 O   0  0  0  0  0  0  0  0  0  0  0  0
   13.0437   -2.6837    0.7189 N   0  0  0  0  0  0  0  0  0  0  0  0
   11.7392   -2.3182    1.2747 C   0  0  0  0  0  0  0  0  0  0  0  0
   11.7241   -1.2628    1.5615 H   0  0  0  0  0  0  0  0  0  0  0  0
   11.5068   -2.9137    2.1629 H   0  0  0  0  0  0  0  0  0  0  0  0
   10.9363   -2.4797    0.5504 H   0  0  0  0  0  0  0  0  0  0  0  0
   14.2473   -2.6106    1.3829 C   0  0  0  0  0  0  0  0  0  0  0  0
   14.4218   -2.2798    2.6908 N   0  0  0  0  0  0  0  0  0  0  0  0
   15.3568   -2.3216    3.0916 H   0  0  0  0  0  0  0  0  0  0  0  0
   13.6068   -2.1240    3.2813 H   0  0  0  0  0  0  0  0  0  0  0  0
   15.2562   -2.8822    0.6251 N   0  0  0  0  0  4  0  0  0  0  0  0
   16.2160   -2.9608    0.9579 H   0  0  0  0  0  0  0  0  0  0  0  0
   14.3246   -5.5174   -1.6289 C   0  0  0  0  0  0  0  0  0  0  0  0
   13.3768   -5.1129   -1.9837 H   0  0  0  0  0  0  0  0  0  0  0  0
   13.8578   -8.9781   -2.9455 N   0  0  0  0  0  0  0  0  0  0  0  0
   13.0603   -9.2544   -3.5037 H   0  0  0  0  0  0  0  0  0  0  0  0
   14.7861   -9.0511   -3.3291 H   0  0  0  0  0  0  0  0  0  0  0  0
  1  2  1  0
  2  3  2  3
  3  4  1  0
  4  5  2  0
  5  6  1  0
  5  7  1  0
  7  8  1  0
  7  9  2  0
  9 10  1  0
  9 11  1  0
 11 12  1  0
 12 13  1  0
 13 14  2  0
 14 15  1  0
 14 16  1  0
 16 17  1  0
 16 18  2  0
 18 19  1  0
 18 20  1  0
 20 21  1  0
 20 22  2  0
 22 23  1  0
 12 24  1  0
 24 25  2  0
 24 26  1  0
 26 27  1  0
 27 28  1  0
 27 29  1  0
 27 30  1  0
 26 31  1  0
 31 32  1  0
 32 33  1  0
 32 34  1  0
 31 35  2  0
 35 36  1  0
 11 37  2  0
 37 38  1  0
  3 39  1  0
 39 40  1  0
 39 41  1  0
 37  4  1  0
 35 12  1  0
 22 13  1  0
M  CHG  1  35   1
M  END
>  <score>  (502) 
4.57186

$$$$

     RDKit          3D

 46 48  0  0  0  0  0  0  0  0999 V2000
   13.9157   -9.5648   -0.7903 H   0  0  0  0  0  0  0  0  0  0  0  0
   14.1887   -9.4421   -1.7129 O   0  0  0  0  0  0  0  0  0  0  0  0
   13.9044   -8.0975   -2.0809 C   0  0  0  0  0  0  0  0  0  0  0  0
   14.7819   -7.0897   -1.3632 C   0  0  0  0  0  0  0  0  0  0  0  0
   16.0864   -7.4465   -0.9783 C   0  0  0  0  0  0  0  0  0  0  0  0
   16.4199   -8.4796   -1.0586 H   0  0  0  0  0  0  0  0  0  0  0  0
   16.9839   -6.4662   -0.5552 C   0  0  0  0  0  0  0  0  0  0  0  0
   18.0061   -6.7269   -0.3000 H   0  0  0  0  0  0  0  0  0  0  0  0
   16.5806   -5.1341   -0.4704 C   0  0  0  0  0  0  0  0  0  0  0  0
   17.2903   -4.3908   -0.1252 H   0  0  0  0  0  0  0  0  0  0  0  0
   15.2836   -4.7413   -0.8307 C   0  0  0  0  0  0  0  0  0  0  0  0
   14.8653   -3.2810   -0.6786 C   0  0  0  0  0  0  0  0  0  0  0  0
   15.4039   -2.2975   -1.7215 C   0  0  0  0  0  0  0  0  0  0  0  0
   15.9363   -2.7017   -2.9605 C   0  0  0  0  0  0  0  0  0  0  0  0
   15.9900   -3.7546   -3.2157 H   0  0  0  0  0  0  0  0  0  0  0  0
   16.4062   -1.7544   -3.8860 C   0  0  0  0  0  0  0  0  0  0  0  0
   16.8205   -2.0717   -4.8375 H   0  0  0  0  0  0  0  0  0  0  0  0
   16.3486   -0.3886   -3.5935 C   0  0  0  0  0  0  0  0  0  0  0  0
   16.7236    0.3439   -4.3052 H   0  0  0  0  0  0  0  0  0  0  0  0
   15.7960    0.0305   -2.3824 C   0  0  0  0  0  0  0  0  0  0  0  0
   15.7365    1.0904   -2.1519 H   0  0  0  0  0  0  0  0  0  0  0  0
   15.3210   -0.9137   -1.4648 C   0  0  0  0  0  0  0  0  0  0  0  0
   14.8876   -0.5614   -0.5331 H   0  0  0  0  0  0  0  0  0  0  0  0
   13.3415   -3.1042   -0.5271 C   0  0  0  0  0  0  0  0  0  0  0  0
   12.4829   -3.2790   -1.3902 O   0  0  0  0  0  0  0  0  0  0  0  0
   13.0668   -2.6641    0.7530 N   0  0  0  0  0  0  0  0  0  0  0  0
   11.7607   -2.3070    1.2982 C   0  0  0  0  0  0  0  0  0  0  0  0
   11.7432   -1.2466    1.5731 H   0  0  0  0  0  0  0  0  0  0  0  0
   10.9666   -2.4813    0.5630 H   0  0  0  0  0  0  0  0  0  0  0  0
   11.5386   -2.9061    2.1889 H   0  0  0  0  0  0  0  0  0  0  0  0
   14.2712   -2.5563    1.4162 C   0  0  0  0  0  0  0  0  0  0  0  0
   14.4541   -2.2006    2.7155 N   0  0  0  0  0  0  0  0  0  0  0  0
   13.6468   -2.1094    3.3276 H   0  0  0  0  0  0  0  0  0  0  0  0
   15.3945   -2.2693    3.1087 H   0  0  0  0  0  0  0  0  0  0  0  0
   15.2761   -2.8582    0.6711 N   0  0  0  0  0  4  0  0  0  0  0  0
   16.2275   -2.9779    1.0286 H   0  0  0  0  0  0  0  0  0  0  0  0
   14.3928   -5.7345   -1.2811 C   0  0  0  0  0  0  0  0  0  0  0  0
   13.3924   -5.4572   -1.6014 H   0  0  0  0  0  0  0  0  0  0  0  0
   12.4158   -7.9204   -1.7661 C   0  0  0  0  0  0  0  0  0  0  0  0
   11.7943   -8.6421   -2.3090 H   0  0  0  0  0  0  0  0  0  0  0  0
   12.2516   -8.0873   -0.6971 H   0  0  0  0  0  0  0  0  0  0  0  0
   12.0930   -6.9098   -2.0310 H   0  0  0  0  0  0  0  0  0  0  0  0
   14.2454   -7.8703   -3.5491 C   0  0  0  0  0  0  0  0  0  0  0  0
   15.3264   -7.8889   -3.7028 H   0  0  0  0  0  0  0  0  0  0  0  0
   13.9302   -6.8752   -3.8459 H   0  0  0  0  0  0  0  0  0  0  0  0
   13.7746   -8.6144   -4.1941 H   0  0  0  0  0  0  0  0  0  0  0  0
  1  2  1  0
  2  3  1  0
  3  4  1  0
  4  5  2  0
  5  6  1  0
  5  7  1  0
  7  8  1  0
  7  9  2  0
  9 10  1  0
  9 11  1  0
 11 12  1  0
 12 13  1  0
 13 14  2  0
 14 15  1  0
 14 16  1  0
 16 17  1  0
 16 18  2  0
 18 19  1  0
 18 20  1  0
 20 21  1  0
 20 22  2  0
 22 23  1  0
 12 24  1  0
 24 25  2  0
 24 26  1  0
 26 27  1  0
 27 28  1  0
 27 29  1  0
 27 30  1  0
 26 31  1  0
 31 32  1  0
 32 33  1  0
 32 34  1  0
 31 35  2  0
 35 36  1  0
 11 37  2  0
 37 38  1  0
  3 39  1  0
 39 40  1  0
 39 41  1  0
 39 42  1  0
  3 43  1  0
 43 44  1  0
 43 45  1  0
 43 46  1  0
 37  4  1  0
 35 12  1  0
 22 13  1  0
M  CHG  1  35   1
M  END
>  <score>  (503) 
4.53285

$$$$

     RDKit          3D

 43 45  0  0  0  0  0  0  0  0999 V2000
   13.2795   -7.9511   -4.1652 H   0  0  0  0  0  0  0  0  0  0  0  0
   14.0919   -7.6318   -3.7414 O   0  0  0  0  0  0  0  0  0  0  0  0
   14.1085   -8.0019   -2.3714 C   0  0  1  0  0  0  0  0  0  0  0  0
   14.5692   -8.9889   -2.2710 H   0  0  0  0  0  0  0  0  0  0  0  0
   14.9362   -6.9719   -1.6175 C   0  0  0  0  0  0  0  0  0  0  0  0
   16.1945   -7.3466   -1.1215 C   0  0  0  0  0  0  0  0  0  0  0  0
   16.5245   -8.3758   -1.2150 H   0  0  0  0  0  0  0  0  0  0  0  0
   17.0518   -6.4026   -0.5502 C   0  0  0  0  0  0  0  0  0  0  0  0
   18.0318   -6.6996   -0.1884 H   0  0  0  0  0  0  0  0  0  0  0  0
   16.6548   -5.0708   -0.4460 C   0  0  0  0  0  0  0  0  0  0  0  0
   17.3396   -4.3373   -0.0305 H   0  0  0  0  0  0  0  0  0  0  0  0
   15.3827   -4.6625   -0.8640 C   0  0  0  0  0  0  0  0  0  0  0  0
   14.9703   -3.2090   -0.6276 C   0  0  0  0  0  0  0  0  0  0  0  0
   15.4729   -2.2472   -1.7037 C   0  0  0  0  0  0  0  0  0  0  0  0
   15.9711   -2.6872   -2.9483 C   0  0  0  0  0  0  0  0  0  0  0  0
   16.0185   -3.7521   -3.1748 H   0  0  0  0  0  0  0  0  0  0  0  0
   16.4145   -1.7538   -3.8975 C   0  0  0  0  0  0  0  0  0  0  0  0
   16.8169   -2.0879   -4.8474 H   0  0  0  0  0  0  0  0  0  0  0  0
   16.3491   -0.3841   -3.6273 C   0  0  0  0  0  0  0  0  0  0  0  0
   16.7144    0.3318   -4.3557 H   0  0  0  0  0  0  0  0  0  0  0  0
   15.8188    0.0599   -2.4154 C   0  0  0  0  0  0  0  0  0  0  0  0
   15.7550    1.1210   -2.2016 H   0  0  0  0  0  0  0  0  0  0  0  0
   15.3768   -0.8657   -1.4698 C   0  0  0  0  0  0  0  0  0  0  0  0
   14.9567   -0.5143   -0.5319 H   0  0  0  0  0  0  0  0  0  0  0  0
   13.4523   -3.0395   -0.4452 C   0  0  0  0  0  0  0  0  0  0  0  0
   12.5731   -3.2182   -1.2831 O   0  0  0  0  0  0  0  0  0  0  0  0
   13.1972   -2.6243    0.8486 N   0  0  0  0  0  0  0  0  0  0  0  0
   11.9148   -2.3092    1.4530 C   0  0  0  0  0  0  0  0  0  0  0  0
   11.9227   -2.5720    2.5160 H   0  0  0  0  0  0  0  0  0  0  0  0
   11.7245   -1.2358    1.3699 H   0  0  0  0  0  0  0  0  0  0  0  0
   11.0990   -2.8572    0.9702 H   0  0  0  0  0  0  0  0  0  0  0  0
   14.3947   -2.5783    1.5072 C   0  0  0  0  0  0  0  0  0  0  0  0
   14.5127   -2.4007    2.8474 N   0  0  0  0  0  0  0  0  0  0  0  0
   13.7000   -2.0508    3.3455 H   0  0  0  0  0  0  0  0  0  0  0  0
   15.4445   -2.2234    3.2192 H   0  0  0  0  0  0  0  0  0  0  0  0
   15.4003   -2.8084    0.7359 N   0  0  0  0  0  4  0  0  0  0  0  0
   16.3030   -3.0843    1.1255 H   0  0  0  0  0  0  0  0  0  0  0  0
   14.5331   -5.6215   -1.4683 C   0  0  0  0  0  0  0  0  0  0  0  0
   13.5620   -5.3121   -1.8452 H   0  0  0  0  0  0  0  0  0  0  0  0
   12.6638   -8.1187   -1.9122 C   0  0  0  0  0  0  0  0  0  0  0  0
   12.6200   -8.5649   -0.9157 H   0  0  0  0  0  0  0  0  0  0  0  0
   12.1942   -7.1335   -1.8870 H   0  0  0  0  0  0  0  0  0  0  0  0
   12.0998   -8.7617   -2.5983 H   0  0  0  0  0  0  0  0  0  0  0  0
  1  2  1  0
  2  3  1  0
  3  4  1  6
  3  5  1  0
  5  6  2  0
  6  7  1  0
  6  8  1  0
  8  9  1  0
  8 10  2  0
 10 11  1  0
 10 12  1  0
 12 13  1  0
 13 14  1  0
 14 15  2  0
 15 16  1  0
 15 17  1  0
 17 18  1  0
 17 19  2  0
 19 20  1  0
 19 21  1  0
 21 22  1  0
 21 23  2  0
 23 24  1  0
 13 25  1  0
 25 26  2  0
 25 27  1  0
 27 28  1  0
 28 29  1  0
 28 30  1  0
 28 31  1  0
 27 32  1  0
 32 33  1  0
 33 34  1  0
 33 35  1  0
 32 36  2  0
 36 37  1  0
 12 38  2  0
 38 39  1  0
  3 40  1  0
 40 41  1  0
 40 42  1  0
 40 43  1  0
 38  5  1  0
 36 13  1  0
 23 14  1  0
M  CHG  1  36   1
M  END
>  <score>  (504) 
4.52134

$$$$

     RDKit          3D

 41 43  0  0  0  0  0  0  0  0999 V2000
   14.4190  -10.2931   -0.5696 H   0  0  0  0  0  0  0  0  0  0  0  0
   13.6946   -9.7089   -0.8809 O   0  0  0  0  0  0  0  0  0  0  0  0
   13.8525   -9.2081   -2.2288 N   0  0  0  0  0  0  0  0  0  0  0  0
   13.2699   -9.6213   -2.9540 H   0  0  0  0  0  0  0  0  0  0  0  0
   14.2156   -7.9201   -2.5961 C   0  0  0  0  0  0  0  0  0  0  0  0
   13.9813   -7.6315   -3.7605 O   0  0  0  0  0  0  0  0  0  0  0  0
   14.9669   -6.9747   -1.7709 C   0  0  0  0  0  0  0  0  0  0  0  0
   16.1797   -7.3766   -1.1927 C   0  0  0  0  0  0  0  0  0  0  0  0
   16.5394   -8.3930   -1.3161 H   0  0  0  0  0  0  0  0  0  0  0  0
   16.9801   -6.4525   -0.5228 C   0  0  0  0  0  0  0  0  0  0  0  0
   17.9416   -6.7516   -0.1172 H   0  0  0  0  0  0  0  0  0  0  0  0
   16.5558   -5.1326   -0.3936 C   0  0  0  0  0  0  0  0  0  0  0  0
   17.1883   -4.4079    0.1086 H   0  0  0  0  0  0  0  0  0  0  0  0
   15.3233   -4.7082   -0.9114 C   0  0  0  0  0  0  0  0  0  0  0  0
   14.8772   -3.2639   -0.6597 C   0  0  0  0  0  0  0  0  0  0  0  0
   15.4065   -2.2657   -1.6856 C   0  0  0  0  0  0  0  0  0  0  0  0
   15.9314   -2.6874   -2.9181 C   0  0  0  0  0  0  0  0  0  0  0  0
   15.9767   -3.7460   -3.1489 H   0  0  0  0  0  0  0  0  0  0  0  0
   16.3992   -1.7616   -3.8609 C   0  0  0  0  0  0  0  0  0  0  0  0
   16.8043   -2.1005   -4.8088 H   0  0  0  0  0  0  0  0  0  0  0  0
   16.3463   -0.3910   -3.5906 C   0  0  0  0  0  0  0  0  0  0  0  0
   16.7188    0.3260   -4.3191 H   0  0  0  0  0  0  0  0  0  0  0  0
   15.8087    0.0525   -2.3788 C   0  0  0  0  0  0  0  0  0  0  0  0
   15.7540    1.1182   -2.1649 H   0  0  0  0  0  0  0  0  0  0  0  0
   15.3375   -0.8782   -1.4407 C   0  0  0  0  0  0  0  0  0  0  0  0
   14.9151   -0.5156   -0.5080 H   0  0  0  0  0  0  0  0  0  0  0  0
   13.3552   -3.0814   -0.4891 C   0  0  0  0  0  0  0  0  0  0  0  0
   12.4893   -3.2900   -1.3370 O   0  0  0  0  0  0  0  0  0  0  0  0
   13.0827   -2.6417    0.7932 N   0  0  0  0  0  0  0  0  0  0  0  0
   11.7704   -2.2898    1.3343 C   0  0  0  0  0  0  0  0  0  0  0  0
   10.9826   -2.4767    0.5935 H   0  0  0  0  0  0  0  0  0  0  0  0
   11.5535   -2.8915    2.2241 H   0  0  0  0  0  0  0  0  0  0  0  0
   11.7355   -1.2285    1.6109 H   0  0  0  0  0  0  0  0  0  0  0  0
   14.2897   -2.5502    1.4534 C   0  0  0  0  0  0  0  0  0  0  0  0
   14.4630   -2.1725    2.7531 N   0  0  0  0  0  0  0  0  0  0  0  0
   15.3973   -2.2247    3.1578 H   0  0  0  0  0  0  0  0  0  0  0  0
   13.6500   -2.0733    3.3556 H   0  0  0  0  0  0  0  0  0  0  0  0
   15.2904   -2.8685    0.7047 N   0  0  0  0  0  4  0  0  0  0  0  0
   16.2494   -2.9635    1.0478 H   0  0  0  0  0  0  0  0  0  0  0  0
   14.5586   -5.6281   -1.6552 C   0  0  0  0  0  0  0  0  0  0  0  0
   13.6605   -5.2862   -2.1668 H   0  0  0  0  0  0  0  0  0  0  0  0
  1  2  1  0
  2  3  1  0
  3  4  1  0
  3  5  1  0
  5  6  2  0
  5  7  1  0
  7  8  2  0
  8  9  1  0
  8 10  1  0
 10 11  1  0
 10 12  2  0
 12 13  1  0
 12 14  1  0
 14 15  1  0
 15 16  1  0
 16 17  2  0
 17 18  1  0
 17 19  1  0
 19 20  1  0
 19 21  2  0
 21 22  1  0
 21 23  1  0
 23 24  1  0
 23 25  2  0
 25 26  1  0
 15 27  1  0
 27 28  2  0
 27 29  1  0
 29 30  1  0
 30 31  1  0
 30 32  1  0
 30 33  1  0
 29 34  1  0
 34 35  1  0
 35 36  1  0
 35 37  1  0
 34 38  2  0
 38 39  1  0
 14 40  2  0
 40 41  1  0
 40  7  1  0
 38 15  1  0
 25 16  1  0
M  CHG  1  38   1
M  END
>  <score>  (505) 
4.49621

$$$$
CAT-4j
     RDKit          3D

 40 42  0  0  1  0  0  0  0  0999 V2000
   11.7106   -2.3098    1.2658 C   0  0  0  0  0  0  0  0  0  0  0  0
   13.0313   -2.6523    0.7225 N   0  0  0  0  0  0  0  0  0  0  0  0
   14.2010   -2.6281    1.3773 C   0  0  0  0  0  0  0  0  0  0  0  0
   14.3777   -2.3568    2.6732 N   0  0  0  0  0  0  0  0  0  0  0  0
   15.2217   -2.9197    0.5738 N   0  0  0  0  0  0  0  0  0  0  0  0
   14.7965   -3.2519   -0.7875 C   0  0  0  0  0  0  0  0  0  0  0  0
   15.1409   -4.7334   -1.0690 C   0  0  0  0  0  0  0  0  0  0  0  0
   16.3619   -5.2517   -0.5871 C   0  0  0  0  0  0  0  0  0  0  0  0
   16.7322   -6.5909   -0.7921 C   0  0  0  0  0  0  0  0  0  0  0  0
   15.8605   -7.4582   -1.4613 C   0  0  0  0  0  0  0  0  0  0  0  0
   14.6405   -6.9706   -1.9577 C   0  0  0  0  0  0  0  0  0  0  0  0
   14.2904   -5.6173   -1.7762 C   0  0  0  0  0  0  0  0  0  0  0  0
   15.3794   -2.2443   -1.7949 C   0  0  0  0  0  0  0  0  0  0  0  0
   15.9522   -2.6550   -3.0208 C   0  0  0  0  0  0  0  0  0  0  0  0
   16.4340   -1.6937   -3.9273 C   0  0  0  0  0  0  0  0  0  0  0  0
   16.3364   -0.3224   -3.6308 C   0  0  0  0  0  0  0  0  0  0  0  0
   15.7943    0.1250   -2.4073 C   0  0  0  0  0  0  0  0  0  0  0  0
   15.3327   -0.8573   -1.5012 C   0  0  0  0  0  0  0  0  0  0  0  0
   13.2767   -3.0094   -0.6368 C   0  0  0  0  0  0  0  0  0  0  0  0
   12.3981   -3.0674   -1.5055 O   0  0  0  0  0  0  0  0  0  0  0  0
    0.0000    0.0000    0.0000 H   0  0  0  0  0  0  0  0  0  0  0  0
    0.0000    0.0000    0.0000 H   0  0  0  0  0  0  0  0  0  0  0  0
    0.0000    0.0000    0.0000 H   0  0  0  0  0  0  0  0  0  0  0  0
    0.0000    0.0000    0.0000 H   0  0  0  0  0  0  0  0  0  0  0  0
    0.0000    0.0000    0.0000 H   0  0  0  0  0  0  0  0  0  0  0  0
    0.0000    0.0000    0.0000 H   0  0  0  0  0  0  0  0  0  0  0  0
    0.0000    0.0000    0.0000 H   0  0  0  0  0  0  0  0  0  0  0  0
    0.0000    0.0000    0.0000 H   0  0  0  0  0  0  0  0  0  0  0  0
    0.0000    0.0000    0.0000 H   0  0  0  0  0  0  0  0  0  0  0  0
    0.0000    0.0000    0.0000 H   0  0  0  0  0  0  0  0  0  0  0  0
    0.0000    0.0000    0.0000 H   0  0  0  0  0  0  0  0  0  0  0  0
    0.0000    0.0000    0.0000 H   0  0  0  0  0  0  0  0  0  0  0  0
    0.0000    0.0000    0.0000 H   0  0  0  0  0  0  0  0  0  0  0  0
    0.0000    0.0000    0.0000 H   0  0  0  0  0  0  0  0  0  0  0  0
    0.0000    0.0000    0.0000 H   0  0  0  0  0  0  0  0  0  0  0  0
    7.7218   -0.7958   -1.8453 B   0  0  0  0  0  0  0  0  0  0  0  0
    7.3116   -1.6621   -0.7321 O   0  0  0  0  0  0  0  0  0  0  0  0
    6.9524   -0.9298   -3.0826 O   0  0  0  0  0  0  0  0  0  0  0  0
    6.9889   -2.5118   -1.0938 H   0  0  0  0  0  0  0  0  0  0  0  0
    6.5430   -0.0387   -3.2480 H   0  0  0  0  0  0  0  0  0  0  0  0
  1  2  1  0
  2  3  1  0
  2 19  1  0
  3  4  1  0
  3  5  2  0
  5  6  1  0
  6  7  1  0
  6 13  1  0
  6 19  1  0
  7  8  2  0
  7 12  1  0
  8  9  1  0
  9 10  2  0
 10 11  1  0
 11 12  2  0
 13 14  2  0
 13 18  1  0
 14 15  1  0
 15 16  2  0
 16 17  1  0
 17 18  2  0
 19 20  2  0
  1 21  1  0
  1 22  1  0
  1 23  1  0
  4 24  1  0
  4 25  1  0
  5 26  1  0
  8 27  1  0
  9 28  1  0
 10 29  1  0
 11 30  1  0
 12 31  1  0
 14 32  1  0
 16 33  1  0
 17 34  1  0
 18 35  1  0
 36 37  1  0
 36 38  1  0
 37 39  1  0
 38 40  1  0
 15 36  1  0
M  CHG  1   5   1
M  END
>  <attachment_point>  (506) 
32

>  <score>  (506) 
<NA>

$$$$
CAT-4j
     RDKit          3D

 60 65  0  0  1  0  0  0  0  0999 V2000
   11.7106   -2.3098    1.2658 C   0  0  0  0  0  0  0  0  0  0  0  0
   13.0313   -2.6523    0.7225 N   0  0  0  0  0  0  0  0  0  0  0  0
   14.2010   -2.6281    1.3773 C   0  0  0  0  0  0  0  0  0  0  0  0
   14.3777   -2.3568    2.6732 N   0  0  0  0  0  0  0  0  0  0  0  0
   15.2217   -2.9197    0.5738 N   0  0  0  0  0  0  0  0  0  0  0  0
   14.7965   -3.2519   -0.7875 C   0  0  0  0  0  0  0  0  0  0  0  0
   15.1409   -4.7334   -1.0690 C   0  0  0  0  0  0  0  0  0  0  0  0
   16.3619   -5.2517   -0.5871 C   0  0  0  0  0  0  0  0  0  0  0  0
   16.7322   -6.5909   -0.7921 C   0  0  0  0  0  0  0  0  0  0  0  0
   15.8605   -7.4582   -1.4613 C   0  0  0  0  0  0  0  0  0  0  0  0
   14.6405   -6.9706   -1.9577 C   0  0  0  0  0  0  0  0  0  0  0  0
   14.2904   -5.6173   -1.7762 C   0  0  0  0  0  0  0  0  0  0  0  0
   15.3794   -2.2443   -1.7949 C   0  0  0  0  0  0  0  0  0  0  0  0
   15.9522   -2.6550   -3.0208 C   0  0  0  0  0  0  0  0  0  0  0  0
   16.4340   -1.6937   -3.9273 C   0  0  0  0  0  0  0  0  0  0  0  0
   16.3364   -0.3224   -3.6308 C   0  0  0  0  0  0  0  0  0  0  0  0
   15.7943    0.1250   -2.4073 C   0  0  0  0  0  0  0  0  0  0  0  0
   15.3327   -0.8573   -1.5012 C   0  0  0  0  0  0  0  0  0  0  0  0
   13.2767   -3.0094   -0.6368 C   0  0  0  0  0  0  0  0  0  0  0  0
   12.3981   -3.0674   -1.5055 O   0  0  0  0  0  0  0  0  0  0  0  0
    0.0000    0.0000    0.0000 H   0  0  0  0  0  0  0  0  0  0  0  0
    0.0000    0.0000    0.0000 H   0  0  0  0  0  0  0  0  0  0  0  0
    0.0000    0.0000    0.0000 H   0  0  0  0  0  0  0  0  0  0  0  0
    0.0000    0.0000    0.0000 H   0  0  0  0  0  0  0  0  0  0  0  0
    0.0000    0.0000    0.0000 H   0  0  0  0  0  0  0  0  0  0  0  0
    0.0000    0.0000    0.0000 H   0  0  0  0  0  0  0  0  0  0  0  0
    0.0000    0.0000    0.0000 H   0  0  0  0  0  0  0  0  0  0  0  0
    0.0000    0.0000    0.0000 H   0  0  0  0  0  0  0  0  0  0  0  0
    0.0000    0.0000    0.0000 H   0  0  0  0  0  0  0  0  0  0  0  0
    0.0000    0.0000    0.0000 H   0  0  0  0  0  0  0  0  0  0  0  0
    0.0000    0.0000    0.0000 H   0  0  0  0  0  0  0  0  0  0  0  0
    0.0000    0.0000    0.0000 H   0  0  0  0  0  0  0  0  0  0  0  0
    0.0000    0.0000    0.0000 H   0  0  0  0  0  0  0  0  0  0  0  0
    0.0000    0.0000    0.0000 H   0  0  0  0  0  0  0  0  0  0  0  0
    0.0000    0.0000    0.0000 H   0  0  0  0  0  0  0  0  0  0  0  0
    7.8087   -0.8048   -1.8661 C   0  0  2  0  0  0  0  0  0  0  0  0
    6.9238   -1.5576   -2.8306 C   0  0  0  0  0  0  0  0  0  0  0  0
    5.4935   -1.4827   -2.3841 C   0  0  1  0  0  0  0  0  0  0  0  0
    5.3992   -2.0241   -0.9790 C   0  0  0  0  0  0  0  0  0  0  0  0
    6.1851   -1.1610   -0.0324 C   0  0  2  0  0  0  0  0  0  0  0  0
    5.8195    0.2896   -0.0936 C   0  0  0  0  0  0  0  0  0  0  0  0
    5.9413    0.7797   -1.5311 C   0  0  2  0  0  0  0  0  0  0  0  0
    5.0095   -0.0570   -2.3598 C   0  0  0  0  0  0  0  0  0  0  0  0
    7.3807    0.6570   -1.9368 C   0  0  0  0  0  0  0  0  0  0  0  0
    7.6508   -1.2740   -0.4426 C   0  0  0  0  0  0  0  0  0  0  0  0
    6.9826   -0.9923   -3.8041 H   0  0  0  0  0  0  0  0  0  0  0  0
    7.2444   -2.5862   -3.0175 H   0  0  0  0  0  0  0  0  0  0  0  0
    4.8743   -2.1020   -3.0575 H   0  0  0  0  0  0  0  0  0  0  0  0
    4.3711   -2.2300   -0.6524 H   0  0  0  0  0  0  0  0  0  0  0  0
    5.9154   -3.0261   -1.0008 H   0  0  0  0  0  0  0  0  0  0  0  0
    6.0541   -1.5248    1.0023 H   0  0  0  0  0  0  0  0  0  0  0  0
    6.5858    0.8536    0.4827 H   0  0  0  0  0  0  0  0  0  0  0  0
    4.8216    0.4881    0.3341 H   0  0  0  0  0  0  0  0  0  0  0  0
    5.6496    1.8345   -1.6336 H   0  0  0  0  0  0  0  0  0  0  0  0
    4.8000    0.3615   -3.3514 H   0  0  0  0  0  0  0  0  0  0  0  0
    4.0290   -0.0741   -1.7971 H   0  0  0  0  0  0  0  0  0  0  0  0
    7.5847    1.0432   -2.9470 H   0  0  0  0  0  0  0  0  0  0  0  0
    7.9840    1.1825   -1.1594 H   0  0  0  0  0  0  0  0  0  0  0  0
    8.0242   -2.3024   -0.3159 H   0  0  0  0  0  0  0  0  0  0  0  0
    8.1944   -0.5306    0.1953 H   0  0  0  0  0  0  0  0  0  0  0  0
  1  2  1  0
  2  3  1  0
  2 19  1  0
  3  4  1  0
  3  5  2  0
  5  6  1  0
  6  7  1  0
  6 13  1  0
  6 19  1  0
  7  8  2  0
  7 12  1  0
  8  9  1  0
  9 10  2  0
 10 11  1  0
 11 12  2  0
 13 14  2  0
 13 18  1  0
 14 15  1  0
 15 16  2  0
 16 17  1  0
 17 18  2  0
 19 20  2  0
  1 21  1  0
  1 22  1  0
  1 23  1  0
  4 24  1  0
  4 25  1  0
  5 26  1  0
  8 27  1  0
  9 28  1  0
 10 29  1  0
 11 30  1  0
 12 31  1  0
 14 32  1  0
 16 33  1  0
 17 34  1  0
 18 35  1  0
 36 37  1  0
 37 38  1  0
 38 39  1  0
 39 40  1  0
 40 41  1  0
 41 42  1  0
 42 43  1  0
 42 44  1  0
 40 45  1  0
 44 36  1  0
 45 36  1  0
 43 38  1  0
 37 46  1  0
 37 47  1  0
 38 48  1  6
 39 49  1  0
 39 50  1  0
 40 51  1  1
 41 52  1  0
 41 53  1  0
 42 54  1  1
 43 55  1  0
 43 56  1  0
 44 57  1  0
 44 58  1  0
 45 59  1  0
 45 60  1  0
 36 15  1  1
M  CHG  1   5   1
M  END
>  <attachment_point>  (507) 
32

>  <score>  (507) 
<NA>

$$$$
CAT-4j
     RDKit          3D

 56 59  0  0  1  0  0  0  0  0999 V2000
   11.7106   -2.3098    1.2658 C   0  0  0  0  0  0  0  0  0  0  0  0
   13.0313   -2.6523    0.7225 N   0  0  0  0  0  0  0  0  0  0  0  0
   14.2010   -2.6281    1.3773 C   0  0  0  0  0  0  0  0  0  0  0  0
   14.3777   -2.3568    2.6732 N   0  0  0  0  0  0  0  0  0  0  0  0
   15.2217   -2.9197    0.5738 N   0  0  0  0  0  0  0  0  0  0  0  0
   14.7965   -3.2519   -0.7875 C   0  0  0  0  0  0  0  0  0  0  0  0
   15.1409   -4.7334   -1.0690 C   0  0  0  0  0  0  0  0  0  0  0  0
   16.3619   -5.2517   -0.5871 C   0  0  0  0  0  0  0  0  0  0  0  0
   16.7322   -6.5909   -0.7921 C   0  0  0  0  0  0  0  0  0  0  0  0
   15.8605   -7.4582   -1.4613 C   0  0  0  0  0  0  0  0  0  0  0  0
   14.6405   -6.9706   -1.9577 C   0  0  0  0  0  0  0  0  0  0  0  0
   14.2904   -5.6173   -1.7762 C   0  0  0  0  0  0  0  0  0  0  0  0
   15.3794   -2.2443   -1.7949 C   0  0  0  0  0  0  0  0  0  0  0  0
   15.9522   -2.6550   -3.0208 C   0  0  0  0  0  0  0  0  0  0  0  0
   16.4340   -1.6937   -3.9273 C   0  0  0  0  0  0  0  0  0  0  0  0
   16.3364   -0.3224   -3.6308 C   0  0  0  0  0  0  0  0  0  0  0  0
   15.7943    0.1250   -2.4073 C   0  0  0  0  0  0  0  0  0  0  0  0
   15.3327   -0.8573   -1.5012 C   0  0  0  0  0  0  0  0  0  0  0  0
   13.2767   -3.0094   -0.6368 C   0  0  0  0  0  0  0  0  0  0  0  0
   12.3981   -3.0674   -1.5055 O   0  0  0  0  0  0  0  0  0  0  0  0
    0.0000    0.0000    0.0000 H   0  0  0  0  0  0  0  0  0  0  0  0
    0.0000    0.0000    0.0000 H   0  0  0  0  0  0  0  0  0  0  0  0
    0.0000    0.0000    0.0000 H   0  0  0  0  0  0  0  0  0  0  0  0
    0.0000    0.0000    0.0000 H   0  0  0  0  0  0  0  0  0  0  0  0
    0.0000    0.0000    0.0000 H   0  0  0  0  0  0  0  0  0  0  0  0
    0.0000    0.0000    0.0000 H   0  0  0  0  0  0  0  0  0  0  0  0
    0.0000    0.0000    0.0000 H   0  0  0  0  0  0  0  0  0  0  0  0
    0.0000    0.0000    0.0000 H   0  0  0  0  0  0  0  0  0  0  0  0
    0.0000    0.0000    0.0000 H   0  0  0  0  0  0  0  0  0  0  0  0
    0.0000    0.0000    0.0000 H   0  0  0  0  0  0  0  0  0  0  0  0
    0.0000    0.0000    0.0000 H   0  0  0  0  0  0  0  0  0  0  0  0
    0.0000    0.0000    0.0000 H   0  0  0  0  0  0  0  0  0  0  0  0
    0.0000    0.0000    0.0000 H   0  0  0  0  0  0  0  0  0  0  0  0
    0.0000    0.0000    0.0000 H   0  0  0  0  0  0  0  0  0  0  0  0
    0.0000    0.0000    0.0000 H   0  0  0  0  0  0  0  0  0  0  0  0
    7.5650   -0.7797   -1.8078 B   0  0  0  0  0  0  0  0  0  0  0  0
    7.0721   -0.7859   -3.1962 O   0  0  0  0  0  0  0  0  0  0  0  0
    6.5460    0.5206   -3.2744 C   0  0  0  0  0  0  0  0  0  0  0  0
    5.3209    0.5358   -2.3961 C   0  0  0  0  0  0  0  0  0  0  0  0
    6.3061    0.9744   -4.6658 C   0  0  0  0  0  0  0  0  0  0  0  0
    7.6481    1.2953   -2.5647 C   0  0  0  0  0  0  0  0  0  0  0  0
    7.3145    2.7433   -2.4250 C   0  0  0  0  0  0  0  0  0  0  0  0
    9.0006    1.0510   -3.1847 C   0  0  0  0  0  0  0  0  0  0  0  0
    7.6475    0.6151   -1.3317 O   0  0  0  0  0  0  0  0  0  0  0  0
    5.6817    0.2653   -1.3652 H   0  0  0  0  0  0  0  0  0  0  0  0
    4.6060   -0.2707   -2.6985 H   0  0  0  0  0  0  0  0  0  0  0  0
    4.7674    1.4790   -2.4168 H   0  0  0  0  0  0  0  0  0  0  0  0
    7.1750    1.4998   -5.0875 H   0  0  0  0  0  0  0  0  0  0  0  0
    5.9180    0.1610   -5.3089 H   0  0  0  0  0  0  0  0  0  0  0  0
    5.4733    1.7365   -4.6319 H   0  0  0  0  0  0  0  0  0  0  0  0
    6.2302    2.8975   -2.3225 H   0  0  0  0  0  0  0  0  0  0  0  0
    7.6126    3.2471   -3.3744 H   0  0  0  0  0  0  0  0  0  0  0  0
    7.7991    3.2296   -1.5649 H   0  0  0  0  0  0  0  0  0  0  0  0
    9.1249    1.4831   -4.1781 H   0  0  0  0  0  0  0  0  0  0  0  0
    9.1724   -0.0559   -3.1494 H   0  0  0  0  0  0  0  0  0  0  0  0
    9.7508    1.5165   -2.5207 H   0  0  0  0  0  0  0  0  0  0  0  0
  1  2  1  0
  2  3  1  0
  2 19  1  0
  3  4  1  0
  3  5  2  0
  5  6  1  0
  6  7  1  0
  6 13  1  0
  6 19  1  0
  7  8  2  0
  7 12  1  0
  8  9  1  0
  9 10  2  0
 10 11  1  0
 11 12  2  0
 13 14  2  0
 13 18  1  0
 14 15  1  0
 15 16  2  0
 16 17  1  0
 17 18  2  0
 19 20  2  0
  1 21  1  0
  1 22  1  0
  1 23  1  0
  4 24  1  0
  4 25  1  0
  5 26  1  0
  8 27  1  0
  9 28  1  0
 10 29  1  0
 11 30  1  0
 12 31  1  0
 14 32  1  0
 16 33  1  0
 17 34  1  0
 18 35  1  0
 36 37  1  0
 37 38  1  0
 38 39  1  0
 38 40  1  0
 38 41  1  0
 41 42  1  0
 41 43  1  0
 41 44  1  0
 44 36  1  0
 39 45  1  0
 39 46  1  0
 39 47  1  0
 40 48  1  0
 40 49  1  0
 40 50  1  0
 42 51  1  0
 42 52  1  0
 42 53  1  0
 43 54  1  0
 43 55  1  0
 43 56  1  0
 15 36  1  0
M  CHG  1   5   1
M  END
>  <attachment_point>  (508) 
32

>  <score>  (508) 
<NA>

$$$$
